// tests PW interface when multiple loads in PW model are replaced with feeders in GLD

#set relax_naming_rules=1
#set minimum_timestep=1;
#set init_sequence=DEFERRED
#set suppress_repeat_messages=TRUE

module tape;
module assert;
module powerflow {
	solver_method FBS;
}
module climate;
module residential {
	implicit_enduses NONE;
	ANSI_voltage_check FALSE;
};

clock{
	timezone PST+8PDT;
	starttime '2001-07-25 06:00:00';
	stoptime '2001-07-25 06:05:00';
}

schedule Cset {
     * 0-7 * * * 74.984;
     * 8-17 * * * 82.184;
     * 18-23 * * * 74.984;
};

schedule Hset {
     * 0-5 * * * 64.796;
     * 6-22 * * * 71.996;
     * 23 * * * 64.796;
};

object climate {
     tmyfile "../WA-Yakima.tmy2";
     interpolate QUADRATIC;
};

#if run_powerworld==TRUE
#define powerworld=true;
#endif

#ifdef powerworld

module network;

//Copy the model into the specific autotest folder
#system copy /y ..\TS9Bus.PWB .\TS9Bus.PWB

// Phase Conductor for 721: 1,000,000 AA,CN
object underground_line_conductor { 
	 name ug_lc_7210;
	 outer_diameter 1.980000;
	 conductor_gmr 0.036800;
	 conductor_diameter 1.150000;
	 conductor_resistance 0.105000;
	 neutral_gmr 0.003310;
	 neutral_resistance 5.903000;
	 neutral_diameter 0.102000;
	 neutral_strands 20.000000;
	 shield_gmr 0.000000;
	 shield_resistance 0.000000;
}

// Phase Conductor for 722: 500,000 AA,CN
object underground_line_conductor { 
	 name ug_lc_7220;
	 outer_diameter 1.560000;
	 conductor_gmr 0.026000;
	 conductor_diameter 0.813000;
	 conductor_resistance 0.206000;
	 neutral_gmr 0.002620;
	 neutral_resistance 9.375000;
	 neutral_diameter 0.081000;
	 neutral_strands 16.000000;
	 shield_gmr 0.000000;
	 shield_resistance 0.000000;
}

// Phase Conductor for 723: 2/0 AA,CN
object underground_line_conductor { 
	 name ug_lc_7230;
	 outer_diameter 1.100000;
	 conductor_gmr 0.012500;
	 conductor_diameter 0.414000;
	 conductor_resistance 0.769000;
	 neutral_gmr 0.002080;
	 neutral_resistance 14.872000;
	 neutral_diameter 0.064000;
	 neutral_strands 7.000000;
	 shield_gmr 0.000000;
	 shield_resistance 0.000000;
}

// Phase Conductor for 724: //2 AA,CN
object underground_line_conductor { 
	 name ug_lc_7240;
	 outer_diameter 0.980000;
	 conductor_gmr 0.008830;
	 conductor_diameter 0.292000;
	 conductor_resistance 1.540000;
	 neutral_gmr 0.002080;
	 neutral_resistance 14.872000;
	 neutral_diameter 0.064000;
	 neutral_strands 6.000000;
	 shield_gmr 0.000000;
	 shield_resistance 0.000000;
}

// underground line spacing: spacing id 515 
object line_spacing {
	 name spacing_515;
	 distance_AB 0.500000;
	 distance_BC 0.500000;
	 distance_AC 1.000000;
	 distance_AN 0.000000;
	 distance_BN 0.000000;
	 distance_CN 0.000000;
}

//line configurations:
object line_configuration {
	 name lc_7211;
	 conductor_A ug_lc_7210;
	 conductor_B ug_lc_7210;
	 conductor_C ug_lc_7210;
	 spacing spacing_515;
}

object line_configuration {
	 name lc_7221;
	 conductor_A ug_lc_7220;
	 conductor_B ug_lc_7220;
	 conductor_C ug_lc_7220;
	 spacing spacing_515;
}

object line_configuration {
	 name lc_7231;
	 conductor_A ug_lc_7230;
	 conductor_B ug_lc_7230;
	 conductor_C ug_lc_7230;
	 spacing spacing_515;
}

object line_configuration {
	 name lc_7241;
	 conductor_A ug_lc_7240;
	 conductor_B ug_lc_7240;
	 conductor_C ug_lc_7240;
	 spacing spacing_515;
}

object triplex_line_conductor {
	name TLC;
	resistance 0.97;
	geometric_mean_radius 0.01111;
}
 
//Transformer config
object transformer_configuration {
	name trans_conf_400;
	connect_type 2;
	install_type PADMOUNT;
	power_rating 500;
	primary_voltage 4800;
	secondary_voltage 480;
	resistance 0.09;
	reactance 1.81;
}

object transformer_configuration {
	name SPCT_4800A;
	connect_type SINGLE_PHASE_CENTER_TAPPED;
	install_type POLETOP;
	shunt_impedance 10000+10000j;
	primary_voltage 4800;
	secondary_voltage 120;
	powerA_rating 110 kVA;
	impedance 0.00033+0.0022j;
}

object transformer_configuration {
	name SPCT_4800B;
	connect_type SINGLE_PHASE_CENTER_TAPPED;
	install_type POLETOP;
	shunt_impedance 10000+10000j;
	primary_voltage 4800;
	secondary_voltage 120;
	powerB_rating 110 kVA;
	impedance 0.00033+0.0022j;
}

object transformer_configuration {
	name SPCT_4800C;
	connect_type SINGLE_PHASE_CENTER_TAPPED;
	install_type POLETOP;
	shunt_impedance 10000+10000j;
	primary_voltage 4800;
	secondary_voltage 120;
	powerC_rating 110 kVA;
	impedance 0.00033+0.0022j;
}

object transformer_configuration {
	name SPCT_480B;
	connect_type SINGLE_PHASE_CENTER_TAPPED;
	install_type POLETOP;
	shunt_impedance 10000+10000j;
	primary_voltage 480;
	secondary_voltage 120;
	powerB_rating 110 kVA;
	impedance 0.00033+0.0022j;
}

object triplex_line_configuration {
      name trip_line_config;
      conductor_1 TLC;
      conductor_2 TLC;
      conductor_N TLC;
      insulation_thickness 0.08;
      diameter 0.368;
}

object pw_model{
	name MyPwModel;
	model_name `${workdir}\TS9Bus.PWB`;
}

object pw_load{
	name myPwLoad5;
	parent MyPwModel;
	powerworld_bus_num 5;
	powerworld_load_id 1;
	power_threshold 1 VA;
}

object pw_load{
	name myPwLoad6;
	parent MyPwModel;
	powerworld_bus_num 6;
	powerworld_load_id 1;
	power_threshold 1 VA;
}

object pw_load{
	name myPwLoad8;
	parent MyPwModel;
	powerworld_bus_num 8;
	powerworld_load_id 1;
	power_threshold 1 VA;
}

// feeder at PW bus 5

object substation {
	parent myPwLoad5;
	name node1;
	bustype SWING;
	phases "ABCD";
	base_power 100 MVA;
	nominal_voltage 230000.0;
	reference_phase PHASE_A;
}

object transformer_configuration {
     name trans_config_to_feeder;
     connect_type WYE_WYE;
     install_type PADMOUNT;
     primary_voltage 230000;
     secondary_voltage 4800;
     power_rating 11.4 MVA;
     impedance 0.00033+0.0022j;
}

object transformer {
	name SubstationStepDown;
	phases ABCN;
	from node1;
	to node799;
	configuration trans_config_to_feeder;
}

//Swing Node - not part of MATLAB
object node {
	phases "ABC";
	name node799;
	bustype SWING;
	voltage_A 2400.000000-1385.640646j;
	voltage_B -2400.000000-1385.640646j;
	voltage_C 0.000000+2771.281292j;
	nominal_voltage 4800;
}

//Actual Feeder information - MATLAB generated copy paste here
object load {
	phases ABCD;
    name U0001;
	voltage_A 2400.000000-1385.640646j;
	voltage_B -2400.000000-1385.640646j;
	voltage_C 0.000000+2771.281292j;
	nominal_voltage 4800;
	constant_power_A 140000.0+70000.0j;
	constant_power_B 140000.0+70000.0j;
	constant_power_C 350000.0+175000.0j;
}

object node {
	phases ABC;
    name U0002;
	voltage_A 2400.000000-1385.640646j;
	voltage_B -2400.000000-1385.640646j;
	voltage_C 0.000000+2771.281292j;
	nominal_voltage 4800;
}

object node {
	phases ABC;
    name U0003;
	voltage_A 2400.000000-1385.640646j;
	voltage_B -2400.000000-1385.640646j;
	voltage_C 0.000000+2771.281292j;
	nominal_voltage 4800;
}

object node {
	phases ABC;
    name U0004;
	voltage_A 2400.000000-1385.640646j;
	voltage_B -2400.000000-1385.640646j;
	voltage_C 0.000000+2771.281292j;
	nominal_voltage 4800;
}

object node {
	phases ABC;
    name U0005;
	voltage_A 2400.000000-1385.640646j;
	voltage_B -2400.000000-1385.640646j;
	voltage_C 0.000000+2771.281292j;
	nominal_voltage 4800;
}

object node {
	phases ABC;
    name U0006;
	voltage_A 2400.000000-1385.640646j;
	voltage_B -2400.000000-1385.640646j;
	voltage_C 0.000000+2771.281292j;
	nominal_voltage 4800;
}

object node {
	phases ABC;
    name U0007;
	voltage_A 2400.000000-1385.640646j;
	voltage_B -2400.000000-1385.640646j;
	voltage_C 0.000000+2771.281292j;
	nominal_voltage 4800;
}

object node {
	phases ABC;
    name U0008;
	voltage_A 2400.000000-1385.640646j;
	voltage_B -2400.000000-1385.640646j;
	voltage_C 0.000000+2771.281292j;
	nominal_voltage 4800;
}

object transformer {
       phases AS;
       from U0008;
       to tn_A_U0008;
       configuration SPCT_4800A;
}

object triplex_meter {
       name tn_A_U0008;
       phases AS;
       nominal_voltage 120;
}

object triplex_line {
       phases AS;
       from tn_A_U0008;
       to tm_A_1_U0008;
       length 16.35;
       configuration trip_line_config;
}

object triplex_meter {
       name tm_A_1_U0008;
       phases AS;
       nominal_voltage 120;
}

object house {
     parent tm_A_1_U0008;
     name house_U0008_1;
     floor_area 1716;
     cooling_setpoint Cset*1;
     heating_setpoint Hset*1;
     thermal_integrity_level ABOVE_NORMAL;
	 air_temperature 75.3600;
          mass_temperature 75.3600;
}

object triplex_line {
       phases AS;
       from tn_A_U0008;
       to tm_A_2_U0008;
       length 21.5;
       configuration trip_line_config;
}

object triplex_meter {
       name tm_A_2_U0008;
       phases AS;
       nominal_voltage 120;
}

object house {
     parent tm_A_2_U0008;
     name house_U0008_2;
     floor_area 2545;
	 schedule_skew 3600;
     cooling_setpoint Cset*1;
     heating_setpoint Hset*1;
     thermal_integrity_level VERY_GOOD;
	 air_temperature 75.3600;
          mass_temperature 75.3600;
}

object triplex_line {
       phases AS;
       from tn_A_U0008;
       to tm_A_3_U0008;
       length 17.2;
       configuration trip_line_config;
}

object triplex_meter {
       name tm_A_3_U0008;
       phases AS;
       nominal_voltage 120;
}

object house {
     parent tm_A_3_U0008;
     name house_U0008_3;
     floor_area 1874;
     cooling_setpoint Cset*1-2;
     heating_setpoint Hset*1+2;
     thermal_integrity_level NORMAL;
	 air_temperature 75.3600;
          mass_temperature 75.3600;
}

object triplex_line {
       phases AS;
       from tn_A_U0008;
       to tm_A_4_U0008;
       length 17.2;
       configuration trip_line_config;
}

object triplex_meter {
       name tm_A_4_U0008;
       phases AS;
       nominal_voltage 120;
}

object house {
     parent tm_A_4_U0008;
     name house_U0008_4;
     floor_area 1300;
     cooling_setpoint Cset*1;
     heating_setpoint Hset*1;
     thermal_integrity_level NORMAL;
	 air_temperature 75.3600;
          mass_temperature 75.3600;
}

object triplex_line {
       phases AS;
       from tn_A_U0008;
       to tm_A_5_U0008;
       length 13.2;
       configuration trip_line_config;
}

object triplex_meter {
       name tm_A_5_U0008;
       phases AS;
       nominal_voltage 120;
}

object house {
     parent tm_A_5_U0008;
     name house_U0008_5;
     floor_area 1645;
	 schedule_skew 1800;
     cooling_setpoint Cset*1;
     heating_setpoint Hset*1;
     thermal_integrity_level GOOD;
	 air_temperature 75.3600;
          mass_temperature 75.3600;
}

object triplex_line {
       phases AS;
       from tn_A_U0008;
       to tm_A_6_U0008;
       length 11.2;
       configuration trip_line_config;
}

object triplex_meter {
       name tm_A_6_U0008;
       phases AS;
       nominal_voltage 120;
}

object house {
     parent tm_A_6_U0008;
     name house_U0008_6;
     floor_area 3000;
	 schedule_skew 1800;
     cooling_setpoint Cset*1+2;
     heating_setpoint Hset*1-2;
     thermal_integrity_level GOOD;
	 air_temperature 75.3600;
          mass_temperature 75.3600;
}

object triplex_line {
       phases AS;
       from tn_A_U0008;
       to tm_A_7_U0008;
       length 29.2;
       configuration trip_line_config;
}

object triplex_meter {
       name tm_A_7_U0008;
       phases AS;
       nominal_voltage 120;
}

object house {
     parent tm_A_7_U0008;
     name house_U0008_7;
     floor_area 1445;
     cooling_setpoint Cset*1-1;
     heating_setpoint Hset*1+3;
     thermal_integrity_level GOOD;
	 air_temperature 75.3600;
          mass_temperature 75.3600;
}

object triplex_line {
       phases AS;
       from tn_A_U0008;
       to tm_A_8_U0008;
       length 19.2;
       configuration trip_line_config;
}

object triplex_meter {
       name tm_A_8_U0008;
       phases AS;
       nominal_voltage 120;
}

object house {
     parent tm_A_8_U0008;
     name house_U0008_8;
     floor_area 2210;
	 schedule_skew -1800;
     cooling_setpoint Cset*1;
     heating_setpoint Hset*1;
     thermal_integrity_level GOOD;
	 air_temperature 75.3600;
          mass_temperature 75.3600;
}

#endif

#ifdef powerworld


object node {
	phases ABC;
    name U0009;
	voltage_A 2400.000000-1385.640646j;
	voltage_B -2400.000000-1385.640646j;
	voltage_C 0.000000+2771.281292j;
	nominal_voltage 4800;
}

object node {
	phases ABC;
    name U0010;
	voltage_A 2400.000000-1385.640646j;
	voltage_B -2400.000000-1385.640646j;
	voltage_C 0.000000+2771.281292j;
	nominal_voltage 4800;
}

object node {
	phases ABC;
    name U0011;
	voltage_A 2400.000000-1385.640646j;
	voltage_B -2400.000000-1385.640646j;
	voltage_C 0.000000+2771.281292j;
	nominal_voltage 4800;
}

object load {
	phases ABCD;
    name U0012;
	voltage_A 2400.000000-1385.640646j;
	voltage_B -2400.000000-1385.640646j;
	voltage_C 0.000000+2771.281292j;
	nominal_voltage 4800;
	constant_power_C 85000.0+40000.0j;
}

object load {
	phases ABCD;
    name U0013;
	voltage_A 2400.000000-1385.640646j;
	voltage_B -2400.000000-1385.640646j;
	voltage_C 0.000000+2771.281292j;
	nominal_voltage 4800;
	constant_power_C 85000.0+40000.0j;
}

object load {
	phases ABCD;
    name U0014;
	voltage_A 2400.000000-1385.640646j;
	voltage_B -2400.000000-1385.640646j;
	voltage_C 0.000000+2771.281292j;
	nominal_voltage 4800;
	constant_current_A 3.541667-1.666667j;
	constant_current_B -3.991720-2.747194j;
}

object load {
	phases ABCD;
    name U0018;
	voltage_A 2400.000000-1385.640646j;
	voltage_B -2400.000000-1385.640646j;
	voltage_C 0.000000+2771.281292j;
	nominal_voltage 4800;
	constant_impedance_A 221.915014+104.430595j;
}

object transformer {
       phases BS;
       from U0018;
       to tn_B_U0018;
       configuration SPCT_4800B;
}

object triplex_meter {
       name tn_B_U0018;
       phases BS;
       nominal_voltage 120;
}

object triplex_line {
       phases BS;
       from tn_B_U0018;
       to tm_B_1_U0018;
       length 16.35;
       configuration trip_line_config;
}

object triplex_meter {
       name tm_B_1_U0018;
       phases BS;
       nominal_voltage 120;
}

object house {
     parent tm_B_1_U0018;
     name house_U0018_1;
     floor_area 2316;
	 schedule_skew -3600;
     cooling_setpoint Cset*1;
     heating_setpoint Hset*1;
     thermal_integrity_level NORMAL;
	 air_temperature 75.3600;
          mass_temperature 75.3600;
}

object triplex_line {
       phases BS;
       from tn_B_U0018;
       to tm_B_2_U0018;
       length 21.5;
       configuration trip_line_config;
}

object triplex_meter {
       name tm_B_2_U0018;
       phases BS;
       nominal_voltage 120;
}

object house {
     parent tm_B_2_U0018;
     name house_U0018_2;
     floor_area 2145;
     cooling_setpoint Cset*1+1;
     heating_setpoint Hset*1;
     thermal_integrity_level GOOD;
	 air_temperature 75.3600;
          mass_temperature 75.3600;
}

object triplex_line {
       phases BS;
       from tn_B_U0018;
       to tm_B_3_U0018;
       length 17.2;
       configuration trip_line_config;
}

object triplex_meter {
       name tm_B_3_U0018;
       phases BS;
       nominal_voltage 120;
}

object house {
     parent tm_B_3_U0018;
     name house_U0018_3;
     floor_area 1274;
	 schedule_skew 4000;
     cooling_setpoint Cset*1;
     heating_setpoint Hset*1;
     thermal_integrity_level NORMAL;
	 air_temperature 75.3600;
          mass_temperature 75.3600;
}

object triplex_line {
       phases BS;
       from tn_B_U0018;
       to tm_B_4_U0018;
       length 17.2;
       configuration trip_line_config;
}

object triplex_meter {
       name tm_B_4_U0018;
       phases BS;
       nominal_voltage 120;
}

object house {
     parent tm_B_4_U0018;
     name house_U0018_4;
     floor_area 1900;
     cooling_setpoint Cset*1;
     heating_setpoint Hset*1;
     thermal_integrity_level BELOW_NORMAL;
	 air_temperature 75.3600;
          mass_temperature 75.3600;
}

object triplex_line {
       phases BS;
       from tn_B_U0018;
       to tm_B_5_U0018;
       length 25;
       configuration trip_line_config;
}

object triplex_meter {
       name tm_B_5_U0018;
       phases BS;
       nominal_voltage 120;
}

object house {
     parent tm_B_5_U0018;
     name house_U0018_5;
     floor_area 1100;
     cooling_setpoint Cset*1;
     heating_setpoint Hset*1;
     thermal_integrity_level LITTLE;
	 air_temperature 75.3600;
          mass_temperature 75.3600;
}

object triplex_line {
       phases BS;
       from tn_B_U0018;
       to tm_B_6_U0018;
       length 11.2;
       configuration trip_line_config;
}

object triplex_meter {
       name tm_B_6_U0018;
       phases BS;
       nominal_voltage 120;
}

object house {
     parent tm_B_6_U0018;
     name house_U0018_6;
     floor_area 2000;
	 schedule_skew -1800;
     cooling_setpoint Cset*1+2;
     heating_setpoint Hset*1-2;
     thermal_integrity_level GOOD;
	 air_temperature 75.3600;
          mass_temperature 75.3600;
}

object triplex_line {
       phases BS;
       from tn_B_U0018;
       to tm_B_7_U0018;
       length 29.2;
       configuration trip_line_config;
}

object triplex_meter {
       name tm_B_7_U0018;
       phases BS;
       nominal_voltage 120;
}

object house {
     parent tm_B_7_U0018;
     name house_U0018_7;
     floor_area 1445;
     cooling_setpoint Cset*1-1;
     heating_setpoint Hset*1+3;
     thermal_integrity_level VERY_LITTLE;
	 air_temperature 75.3600;
          mass_temperature 75.3600;
}

object triplex_line {
       phases BS;
       from tn_B_U0018;
       to tm_B_8_U0018;
       length 19.2;
       configuration trip_line_config;
}

object triplex_meter {
       name tm_B_8_U0018;
       phases BS;
       nominal_voltage 120;
}

object house {
     parent tm_B_8_U0018;
     name house_U0018_8;
     floor_area 2210;
	 schedule_skew -3600;
     cooling_setpoint Cset*1;
     heating_setpoint Hset*1;
     thermal_integrity_level GOOD;
	 air_temperature 75.3600;
          mass_temperature 75.3600;
}

object load {
	phases ABCD;
    name U0020;
	voltage_A 2400.000000-1385.640646j;
	voltage_B -2400.000000-1385.640646j;
	voltage_C 0.000000+2771.281292j;
	nominal_voltage 4800;
	constant_power_C 85000.0+40000.0j;
}

object load {
	phases ABCD;
    name U0022;
	voltage_A 2400.000000-1385.640646j;
	voltage_B -2400.000000-1385.640646j;
	voltage_C 0.000000+2771.281292j;
	nominal_voltage 4800;
	constant_current_B -27.212870-17.967408j;
	constant_current_C -0.383280+4.830528j;
	object recorder {
		property voltage_B;
		file NodeU0022_Vb.csv;
		interval 1;
		limit 301;
	};
	object complex_assert {
		target voltage_B;
		object player {
			property value;
			file ../NodeU0022_Vb.player;
			loop 1;
		};
		within 0.01;
	};	
}

object load {
	phases ABCD;
    name U0024;
	voltage_A 2400.000000-1385.640646j;
	voltage_B -2400.000000-1385.640646j;
	voltage_C 0.000000+2771.281292j;
	nominal_voltage 4800;
	constant_impedance_B 438.857143+219.428571j;
}

object load {
	phases ABCD;
    name U0025;
	voltage_A 2400.000000-1385.640646j;
	voltage_B -2400.000000-1385.640646j;
	voltage_C 0.000000+2771.281292j;
	nominal_voltage 4800;
	constant_power_B 42000.0+21000.0j;
}

object load {
	phases ABCD;
    name U0027;
	voltage_A 2400.000000-1385.640646j;
	voltage_B -2400.000000-1385.640646j;
	voltage_C 0.000000+2771.281292j;
	nominal_voltage 4800;
	constant_power_C 42000.0+21000.0j;
}

object load {
	phases ABCD;
    name U0028;
	voltage_A 2400.000000-1385.640646j;
	voltage_B -2400.000000-1385.640646j;
	voltage_C 0.000000+2771.281292j;
	nominal_voltage 4800;
	constant_power_A 42000.0+21000.0j;
	constant_power_B 42000.0+21000.0j;
	constant_power_C 42000.0+21000.0j;
}

object load {
	phases ABCD;
    name U0029;
	voltage_A 2400.000000-1385.640646j;
	voltage_B -2400.000000-1385.640646j;
	voltage_C 0.000000+2771.281292j;
	nominal_voltage 4800;
	constant_current_A 8.750000-4.375000j;
}

object load {
	phases ABCD;
    name U0030;
	voltage_A 2400.000000-1385.640646j;
	voltage_B -2400.000000-1385.640646j;
	voltage_C 0.000000+2771.281292j;
	nominal_voltage 4800;
	constant_impedance_C 221.915014+104.430595j;
}

object transformer {
       phases AS;
       from U0030;
       to tn_A_U0030;
       configuration SPCT_4800A;
}

object triplex_meter {
       name tn_A_U0030;
       phases AS;
       nominal_voltage 120;
}

object triplex_line {
       phases AS;
       from tn_A_U0030;
       to tm_A_1_U0030;
       length 16.35;
       configuration trip_line_config;
}

object triplex_meter {
       name tm_A_1_U0030;
       phases AS;
       nominal_voltage 120;
}

object house {
     parent tm_A_1_U0030;
     name house_U0030_1;
     floor_area 2316;
	 schedule_skew -3600;
     cooling_setpoint Cset*1;
     heating_setpoint Hset*1;
     thermal_integrity_level NORMAL;
	 air_temperature 75.3600;
          mass_temperature 75.3600;
}

object triplex_line {
       phases AS;
       from tn_A_U0030;
       to tm_A_2_U0030;
       length 21.5;
       configuration trip_line_config;
}

object triplex_meter {
       name tm_A_2_U0030;
       phases AS;
       nominal_voltage 120;
}

object house {
     parent tm_A_2_U0030;
     name house_U0030_2;
     floor_area 2145;
     cooling_setpoint Cset*1+1;
     heating_setpoint Hset*1;
     thermal_integrity_level NORMAL;
	 air_temperature 75.3600;
          mass_temperature 75.3600;
}

object triplex_line {
       phases AS;
       from tn_A_U0030;
       to tm_A_3_U0030;
       length 17.2;
       configuration trip_line_config;
}

object triplex_meter {
       name tm_A_3_U0030;
       phases AS;
       nominal_voltage 120;
}

object house {
     parent tm_A_3_U0030;
     name house_U0030_3;
     floor_area 1274;
	 schedule_skew 4000;
     cooling_setpoint Cset*1;
     heating_setpoint Hset*1;
     thermal_integrity_level ABOVE_NORMAL;
	 air_temperature 75.3600;
          mass_temperature 75.3600;
}

object triplex_line {
       phases AS;
       from tn_A_U0030;
       to tm_A_4_U0030;
       length 17.2;
       configuration trip_line_config;
}

object triplex_meter {
       name tm_A_4_U0030;
       phases AS;
       nominal_voltage 120;
}

object house {
     parent tm_A_4_U0030;
     name house_U0030_4;
     floor_area 1150;
     cooling_setpoint Cset*1-3;
     heating_setpoint Hset*1-3;
     thermal_integrity_level ABOVE_NORMAL;
	 air_temperature 75.3600;
          mass_temperature 75.3600;
}

object triplex_line {
       phases AS;
       from tn_A_U0030;
       to tm_A_5_U0030;
       length 25;
       configuration trip_line_config;
}

object triplex_meter {
       name tm_A_5_U0030;
       phases AS;
       nominal_voltage 120;
}

object house {
     parent tm_A_5_U0030;
     name house_U0030_5;
     floor_area 1700;
     cooling_setpoint Cset*1;
     heating_setpoint Hset*1;
     thermal_integrity_level LITTLE;
	 air_temperature 75.3600;
          mass_temperature 75.3600;
}

object triplex_line {
       phases AS;
       from tn_A_U0030;
       to tm_A_6_U0030;
       length 11.2;
       configuration trip_line_config;
}

object triplex_meter {
       name tm_A_6_U0030;
       phases AS;
       nominal_voltage 120;
}

object house {
     parent tm_A_6_U0030;
     name house_U0030_6;
     floor_area 2000;
	 schedule_skew -900;
     cooling_setpoint Cset*1+2;
     heating_setpoint Hset*1-2;
     thermal_integrity_level VERY_GOOD;
	 air_temperature 75.3600;
          mass_temperature 75.3600;
}

object triplex_line {
       phases AS;
       from tn_A_U0030;
       to tm_A_7_U0030;
       length 29.2;
       configuration trip_line_config;
}

object triplex_meter {
       name tm_A_7_U0030;
       phases AS;
       nominal_voltage 120;
}

object house {
     parent tm_A_7_U0030;
     name house_U0030_7;
     floor_area 1445;
     cooling_setpoint Cset*1-1;
     heating_setpoint Hset*1+3;
     thermal_integrity_level VERY_LITTLE;
	 air_temperature 75.3600;
          mass_temperature 75.3600;
}

object triplex_line {
       phases AS;
       from tn_A_U0030;
       to tm_A_8_U0030;
       length 19.2;
       configuration trip_line_config;
}

object triplex_meter {
       name tm_A_8_U0030;
       phases AS;
       nominal_voltage 120;
}

object house {
     parent tm_A_8_U0030;
     name house_U0030_8;
     floor_area 2210;
	 schedule_skew 900;
     cooling_setpoint Cset*1;
     heating_setpoint Hset*1;
     thermal_integrity_level NORMAL;
	 air_temperature 75.3600;
          mass_temperature 75.3600;
}

#endif

#ifdef powerworld

object load {
	phases ABCD;
    name U0031;
	voltage_A 2400.000000-1385.640646j;
	voltage_B -2400.000000-1385.640646j;
	voltage_C 0.000000+2771.281292j;
	nominal_voltage 4800;
	constant_impedance_B 221.915014+104.430595j;
}

object load {
	phases ABCD;
    name U0032;
	voltage_A 2400.000000-1385.640646j;
	voltage_B -2400.000000-1385.640646j;
	voltage_C 0.000000+2771.281292j;
	nominal_voltage 4800;
	constant_power_C 42000.0+21000.0j;
}

object load {
	phases ABCD;
    name U0033;
	voltage_A 2400.000000-1385.640646j;
	voltage_B -2400.000000-1385.640646j;
	voltage_C 0.000000+2771.281292j;
	nominal_voltage 4800;
	constant_current_A 17.708333-8.333333j;
}

object load {
	phases ABCD;
    name U0034;
	voltage_A 2400.000000-1385.640646j;
	voltage_B -2400.000000-1385.640646j;
	voltage_C 0.000000+2771.281292j;
	nominal_voltage 4800;
	constant_power_C 42000.0+21000.0j;
}

object load {
	phases ABCD;
    name U0035;
	voltage_A 2400.000000-1385.640646j;
	voltage_B -2400.000000-1385.640646j;
	voltage_C 0.000000+2771.281292j;
	nominal_voltage 4800;
	constant_power_C 85000.0+40000.0j;
}

object load {
	phases ABCD;
    name U0036;
	voltage_A 2400.000000-1385.640646j;
	voltage_B -2400.000000-1385.640646j;
	voltage_C 0.000000+2771.281292j;
	nominal_voltage 4800;
	constant_impedance_B 438.857143+219.428571j;
}

object transformer {
       phases CS;
       from U0036;
       to tn_C_U0036;
       configuration SPCT_4800C;
}

object triplex_meter {
       name tn_C_U0036;
       phases CS;
       nominal_voltage 120;
}

object triplex_line {
       phases CS;
       from tn_C_U0036;
       to tm_C_1_U0036;
       length 16.35;
       configuration trip_line_config;
}

object triplex_meter {
       name tm_C_1_U0036;
       phases CS;
       nominal_voltage 120;
}

object house {
     parent tm_C_1_U0036;
     name house_U0036_1;
     floor_area 2316;
	 schedule_skew -3600;
     cooling_setpoint Cset*1;
     heating_setpoint Hset*1;
     thermal_integrity_level NORMAL;
	 air_temperature 75.3600;
          mass_temperature 75.3600;
}

object triplex_line {
       phases CS;
       from tn_C_U0036;
       to tm_C_2_U0036;
       length 21.5;
       configuration trip_line_config;
}

object triplex_meter {
       name tm_C_2_U0036;
       phases CS;
       nominal_voltage 120;
}

object house {
     parent tm_C_2_U0036;
     name house_U0036_2;
     floor_area 2145;
     cooling_setpoint Cset*1+1;
     heating_setpoint Hset*1;
     thermal_integrity_level GOOD;
	 air_temperature 75.3600;
          mass_temperature 75.3600;
}

object triplex_line {
       phases CS;
       from tn_C_U0036;
       to tm_C_3_U0036;
       length 17.2;
       configuration trip_line_config;
}

object triplex_meter {
       name tm_C_3_U0036;
       phases CS;
       nominal_voltage 120;
}

object house {
     parent tm_C_3_U0036;
     name house_U0036_3;
     floor_area 1274;
	 schedule_skew 4000;
     cooling_setpoint Cset*1;
     heating_setpoint Hset*1;
     thermal_integrity_level NORMAL;
	 air_temperature 75.3600;
          mass_temperature 75.3600;
}

object triplex_line {
       phases CS;
       from tn_C_U0036;
       to tm_C_4_U0036;
       length 17.2;
       configuration trip_line_config;
}

object triplex_meter {
       name tm_C_4_U0036;
       phases CS;
       nominal_voltage 120;
}

object house {
     parent tm_C_4_U0036;
     name house_U0036_4;
     floor_area 1900;
     cooling_setpoint Cset*1;
     heating_setpoint Hset*1;
     thermal_integrity_level BELOW_NORMAL;
	 air_temperature 75.3600;
          mass_temperature 75.3600;
}

object triplex_line {
       phases CS;
       from tn_C_U0036;
       to tm_C_5_U0036;
       length 25;
       configuration trip_line_config;
}

object triplex_meter {
       name tm_C_5_U0036;
       phases CS;
       nominal_voltage 120;
}

object house {
     parent tm_C_5_U0036;
     name house_U0036_5;
     floor_area 1100;
     cooling_setpoint Cset*1;
     heating_setpoint Hset*1;
     thermal_integrity_level LITTLE;
	 air_temperature 75.3600;
          mass_temperature 75.3600;
}

object triplex_line {
       phases CS;
       from tn_C_U0036;
       to tm_C_6_U0036;
       length 11.2;
       configuration trip_line_config;
}

object triplex_meter {
       name tm_C_6_U0036;
       phases CS;
       nominal_voltage 120;
}

object house {
     parent tm_C_6_U0036;
     name house_U0036_6;
     floor_area 2000;
	 schedule_skew -1800;
     cooling_setpoint Cset*1+2;
     heating_setpoint Hset*1-2;
     thermal_integrity_level GOOD;
	 air_temperature 75.3600;
          mass_temperature 75.3600;
}

object triplex_line {
       phases CS;
       from tn_C_U0036;
       to tm_C_7_U0036;
       length 29.2;
       configuration trip_line_config;
}

object triplex_meter {
       name tm_C_7_U0036;
       phases CS;
       nominal_voltage 120;
}

object house {
     parent tm_C_7_U0036;
     name house_U0036_7;
     floor_area 1445;
     cooling_setpoint Cset*1-1;
     heating_setpoint Hset*1+3;
     thermal_integrity_level VERY_LITTLE;
	 air_temperature 75.3600;
          mass_temperature 75.3600;
}

object triplex_line {
       phases CS;
       from tn_C_U0036;
       to tm_C_8_U0036;
       length 19.2;
       configuration trip_line_config;
}

object triplex_meter {
       name tm_C_8_U0036;
       phases CS;
       nominal_voltage 120;
}

object house {
     parent tm_C_8_U0036;
     name house_U0036_8;
     floor_area 2210;
	 schedule_skew -3600;
     cooling_setpoint Cset*1;
     heating_setpoint Hset*1;
     thermal_integrity_level GOOD;
	 air_temperature 75.3600;
          mass_temperature 75.3600;
}

object load {
	phases ABCD;
    name U0037;
	voltage_A 2400.000000-1385.640646j;
	voltage_B -2400.000000-1385.640646j;
	voltage_C 0.000000+2771.281292j;