// tests for an error when pw_recorder has an invalid field

#set relax_naming_rules=1
#set minimum_timestep=1;
#set init_sequence=DEFERRED
#set suppress_repeat_messages=FALSE

module tape;
module assert;
module powerflow {
	solver_method FBS;
}

clock{
	timezone PST+8PDT;
	starttime '2001-07-25 01:00:00';
	stoptime '2001-07-25 01:05:00';
}

#if run_powerworld==TRUE
#define powerworld=true;
#endif

#ifdef powerworld

module network;

//Copy the model into the specific autotest folder
#system copy /y ..\TS9Bus.PWB .\TS9Bus.PWB

object pw_model {
	name MyPwModel;
	model_name `${workdir}\TS9Bus.PWB`;
}

object pw_load {
	name MyPwLoad;
	parent MyPwModel;
	powerworld_bus_num 5;
	powerworld_load_id 1;
	power_threshold 1;
}

object pw_recorder {
	name MyPwRec;
	model MyPwModel;
	obj_class load;
	key_strings BusNum,LoadID;
	key_values 5,2;    // only one load at PW bus 5
	properties LoadSMW;
	interval 60;
	limit 100;
	outfile PwRec_out.csv;
}

#else
#warning No PowerWorld
#endif
