// $Id$
//	Copyright (C) 2008 Battelle Memorial Institute

clock {
	timezone PST8PDT;
	starttime '2000-01-01 0:00:00';
}

module powerflow;
module residential;

object house {
	object evcharger {
		demand_profile "evcharger_demand_profile.csv";
	};
}


