// test_complex_assert_imaginary_err

module assert;
module powerflow;

object meter {
	voltage_A 110.0;
	nominal_voltage 124.752;
	phases A;
	object complex_assert {
		target "voltage_A";
		value 110+10j;
		operation IMAGINARY;
		within 1;
	};
};
	