//*********************************************
// BEGIN 
//*********************************************
// filename... 12EG-1.glm 

clock { 
	 timestamp '2000-01-01 0:00:00';
	 timezone EST+5EDT;
}

//*********************************************
// modules
module powerflow;


object triplex_line_conductor: {
	name 1/0 AA triplex;
	resistance 0.97;
	geometric_mean_radius 0.0111;
}

object triplex_line_configuration:1 {
	l1_conductor 1/0 AA triplex;
	l2_conductor 1/0 AA triplex;
	lN_conductor 1/0 AA triplex;
	insulation_thickness 0.08;
	diameter 0.368;
}

object transformer:116  {
	phases "B|N";
	from 181_76778;
	to 181_76778_CB_TX1;
	configuration transformer_configuration:64;
}

object triplex_node:117 {
	name 181_76778_CB_TX1;
	phases "B|N";
	line1_voltage 120;
	line2_voltage 120;
	lineN_voltage 0;
}

object meter:118 {
	name 181_76778_CB_TX1_M;
	phases "BN";
	type SINGLEPHASE;
	line1_voltage 120;
	line2_voltage 120;
	line3_voltage 0;
}

object triplex_line:119 {
	name 181_76778_CB_TXL;
	from 181_76778_CB_TX1;
	to 181_76778_CB_TX1_M;
	length 30;
	configuration triplex_line_configuration:1;
}

object triplex_node:120 {
	name 181_76778_CB_TX2;
	parent 181_76778_CB_TX1_M;
	latitude 51N32'55.352";
	longitude 113W50'58.401";
	phases "B|N";
	phaseB_VA 6435.22304524123+1906.93630401834j;
	line1_voltage 120;
	line2_voltage 120;
	lineN_voltage 0;
}

object transformer:121  {
	phases "A|N";
	from 181_4312;
	to 181_4312_CA_TX1;
	configuration transformer_configuration:51;
}

object triplex_node:122 {
	name 181_4312_CA_TX1;
	phases "A|N";
	line1_voltage 120;
	line2_voltage 120;
	lineN_voltage 0;
}

object meter:123 {
	name 181_4312_CA_TX1_M;
	phases "AN";
	type SINGLEPHASE;
	line1_voltage 120;
	line2_voltage 120;
	line3_voltage 0;
}

object triplex_line:124 {
	name 181_4312_CA_TXL;
	from 181_4312_CA_TX1;
	to 181_4312_CA_TX1_M;
	length 30;
	configuration triplex_line_configuration:1;
}

object triplex_node:125 {
	name 181_4312_CA_TX2;
	parent 181_4312_CA_TX1_M;
	latitude 51N33'13.363";
	longitude 113W51'41.310";
	phases "A|N";
	phaseA_VA 6156.22569516731+1836.75230329455j;
	line1_voltage 120;
	line2_voltage 120;
	lineN_voltage 0;
}

object transformer:126  {
	phases "A|N";
	from 181_4413;
	to 181_4413_CA_TX1;
	configuration transformer_configuration:52;
}

object triplex_node:127 {
	name 181_4413_CA_TX1;
	phases "A|N";
	line1_voltage 120;
	line2_voltage 120;
	lineN_voltage 0;
}

object meter:128 {
	name 181_4413_CA_TX1_M;
	phases "AN";
	type SINGLEPHASE;
	line1_voltage 120;
	line2_voltage 120;
	line3_voltage 0;
}

object triplex_line:129 {
	name 181_4413_CA_TXL;
	from 181_4413_CA_TX1;
	to 181_4413_CA_TX1_M;
	length 30;
	configuration triplex_line_configuration:1;
}

object triplex_node:130 {
	name 181_4413_CA_TX2;
	parent 181_4413_CA_TX1_M;
	latitude 51N33'5.422";
	longitude 113W51'36.817";
	phases "A|N";
	phaseA_VA 10260.3761586122+3061.25383882426j;
	line1_voltage 120;
	line2_voltage 120;
	lineN_voltage 0;
}

object transformer:131  {
	phases "B|N";
	from 181_148478;
	to 181_148478_IB_TX1;
	configuration transformer_configuration:65;
}

object triplex_node:132 {
	name 181_148478_IB_TX1;
	phases "B|N";
	line1_voltage 120;
	line2_voltage 120;
	lineN_voltage 0;
}

object meter:133 {
	name 181_148478_IB_TX1_M;
	phases "BN";
	type SINGLEPHASE;
	line1_voltage 120;
	line2_voltage 120;
	line3_voltage 0;
}

object triplex_line:134 {
	name 181_148478_IB_TXL;
	from 181_148478_IB_TX1;
	to 181_148478_IB_TX1_M;
	length 30;
	configuration triplex_line_configuration:1;
}

object triplex_node:135 {
	name 181_148478_IB_TX2;
	parent 181_148478_IB_TX1_M;
	latitude 51N33'2.712";
	longitude 113W51'12.119";
	phases "B|N";
	phaseB_VA 429.014869682749+127.129086934556j;
	line1_voltage 120;
	line2_voltage 120;
	lineN_voltage 0;
}

object transformer:136  {
	phases "B|N";
	from 181_21567;
	to 181_21567_CB_TX1;
	configuration transformer_configuration:66;
}

object triplex_node:137 {
	name 181_21567_CB_TX1;
	phases "B|N";
	line1_voltage 120;
	line2_voltage 120;
	lineN_voltage 0;
}

object meter:138 {
	name 181_21567_CB_TX1_M;
	phases "BN";
	type SINGLEPHASE;
	line1_voltage 120;
	line2_voltage 120;
	line3_voltage 0;
}

object triplex_line:139 {
	name 181_21567_CB_TXL;
	from 181_21567_CB_TX1;
	to 181_21567_CB_TX1_M;
	length 30;
	configuration triplex_line_configuration:1;
}

object triplex_node:140 {
	name 181_21567_CB_TX2;
	parent 181_21567_CB_TX1_M;
	latitude 51N33'0.507";
	longitude 113W51'4.447";
	phases "B|N";
	phaseB_VA 10725.3717420687+3178.22717336391j;
	line1_voltage 120;
	line2_voltage 120;
	lineN_voltage 0;
}

object transformer:141  {
	phases "A|N";
	from 181_21580;
	to 181_21580_CA_TX1;
	configuration transformer_configuration:51;
}

object triplex_node:142 {
	name 181_21580_CA_TX1;
	phases "A|N";
	line1_voltage 120;
	line2_voltage 120;
	lineN_voltage 0;
}

object meter:143 {
	name 181_21580_CA_TX1_M;
	phases "AN";
	type SINGLEPHASE;
	line1_voltage 120;
	line2_voltage 120;
	line3_voltage 0;
}

object triplex_line:144 {
	name 181_21580_CA_TXL;
	from 181_21580_CA_TX1;
	to 181_21580_CA_TX1_M;
	length 30;
	configuration triplex_line_configuration:1;
}

object triplex_node:145 {
	name 181_21580_CA_TX2;
	parent 181_21580_CA_TX1_M;
	latitude 51N32'57.655";
	longitude 113W51'32.679";
	phases "A|N";
	phaseA_VA 6156.22569516731+1836.75230329455j;
	line1_voltage 120;
	line2_voltage 120;
	lineN_voltage 0;
}

object transformer:146  {
	phases "A|N";
	from 181_4516;
	to 181_4516_CA_TX1;
	configuration transformer_configuration:51;
}

object triplex_node:147 {
	name 181_4516_CA_TX1;
	phases "A|N";
	line1_voltage 120;
	line2_voltage 120;
	lineN_voltage 0;
}

object meter:148 {
	name 181_4516_CA_TX1_M;
	phases "AN";
	type SINGLEPHASE;
	line1_voltage 120;
	line2_voltage 120;
	line3_voltage 0;
}

object triplex_line:149 {
	name 181_4516_CA_TXL;
	from 181_4516_CA_TX1;
	to 181_4516_CA_TX1_M;
	length 30;
	configuration triplex_line_configuration:1;
}

object triplex_node:150 {
	name 181_4516_CA_TX2;
	parent 181_4516_CA_TX1_M;
	latitude 51N32'52.077";
	longitude 113W51'33.177";
	phases "A|N";
	phaseA_VA 6156.22569516731+1836.75230329455j;
	line1_voltage 120;
	line2_voltage 120;
	lineN_voltage 0;
}

object transformer:151  {
	phases "B|N";
	from 181_4546;
	to 181_4546_CB_TX1;
	configuration transformer_configuration:67;
}

object triplex_node:152 {
	name 181_4546_CB_TX1;
	phases "B|N";
	line1_voltage 120;
	line2_voltage 120;
	lineN_voltage 0;
}

object meter:153 {
	name 181_4546_CB_TX1_M;
	phases "BN";
	type SINGLEPHASE;
	line1_voltage 120;
	line2_voltage 120;
	line3_voltage 0;
}

object triplex_line:154 {
	name 181_4546_CB_TXL;
	from 181_4546_CB_TX1;
	to 181_4546_CB_TX1_M;
	length 30;
	configuration triplex_line_configuration:1;
}

object triplex_node:155 {
	name 181_4546_CB_TX2;
	parent 181_4546_CB_TX1_M;
	latitude 51N32'48.958";
	longitude 113W50'56.835";
	phases "B|N";
	phaseB_VA 4290.14869682749+1271.29086934556j;
	line1_voltage 120;
	line2_voltage 120;
	lineN_voltage 0;
}

object transformer:156  {
	phases "A|B|C|N";
	from 181_4551;
	to 181_4551_C_M;
	configuration transformer_configuration:98;
}

object meter:157 {
	name 181_4551_C_M;
	type POLYPHASE;
	phases "ABCN";
	nominal_voltage 240;
	line1_voltage 7199.558+0.0j;
	line2_voltage -3599.779-6235.000j;
	line3_voltage -3599.779+6235.000j;
}
object transformer:158  {
	phases "A|B|C|N";
	from 181_4586;
	to 181_4586_C_M;
	configuration transformer_configuration:99;
}

object meter:159 {
	name 181_4586_C_M;
	type POLYPHASE;
	phases "ABCN";
	nominal_voltage 240;
	line1_voltage 7199.558+0.0j;
	line2_voltage -3599.779-6235.000j;
	line3_voltage -3599.779+6235.000j;
}
object transformer:160  {
	phases "A|N";
	from 181_4621;
	to 181_4621_CA_TX1;
	configuration transformer_configuration:51;
}

object triplex_node:161 {
	name 181_4621_CA_TX1;
	phases "A|N";
	line1_voltage 120;
	line2_voltage 120;
	lineN_voltage 0;
}

object meter:162 {
	name 181_4621_CA_TX1_M;
	phases "AN";
	type SINGLEPHASE;
	line1_voltage 120;
	line2_voltage 120;
	line3_voltage 0;
}

object triplex_line:163 {
	name 181_4621_CA_TXL;
	from 181_4621_CA_TX1;
	to 181_4621_CA_TX1_M;
	length 30;
	configuration triplex_line_configuration:1;
}

object triplex_node:164 {
	name 181_4621_CA_TX2;
	parent 181_4621_CA_TX1_M;
	latitude 51N32'39.518";
	longitude 113W51'3.080";
	phases "A|N";
	phaseA_VA 6156.22569516731+1836.75230329455j;
	line1_voltage 120;
	line2_voltage 120;
	lineN_voltage 0;
}

object transformer:165  {
	phases "A|B|C|N";
	from 181_4622;
	to 181_4622_C_M;
	configuration transformer_configuration:99;
}

object meter:166 {
	name 181_4622_C_M;
	type POLYPHASE;
	phases "ABCN";
	nominal_voltage 240;
	line1_voltage 7199.558+0.0j;
	line2_voltage -3599.779-6235.000j;
	line3_voltage -3599.779+6235.000j;
}
object transformer:167  {
	phases "A|N";
	from 181_21630;
	to 181_21630_CA_TX1;
	configuration transformer_configuration:54;
}

object triplex_node:168 {
	name 181_21630_CA_TX1;
	phases "A|N";
	line1_voltage 120;
	line2_voltage 120;
	lineN_voltage 0;
}

object meter:169 {
	name 181_21630_CA_TX1_M;
	phases "AN";
	type SINGLEPHASE;
	line1_voltage 120;
	line2_voltage 120;
	line3_voltage 0;
}

object triplex_line:170 {
	name 181_21630_CA_TXL;
	from 181_21630_CA_TX1;
	to 181_21630_CA_TX1_M;
	length 30;
	configuration triplex_line_configuration:1;
}

object triplex_node:171 {
	name 181_21630_CA_TX2;
	parent 181_21630_CA_TX1_M;
	latitude 51N32'38.770";
	longitude 113W51'9.331";
	phases "A|N";
	phaseA_VA 2052.07523172243+612.250767764851j;
	line1_voltage 120;
	line2_voltage 120;
	lineN_voltage 0;
}

object transformer:172  {
	phases "A|B|C|N";
	from 181_4633;
	to 181_4633_C_M;
	configuration transformer_configuration:101;
}

object meter:173 {
	name 181_4633_C_M;
	type POLYPHASE;
	phases "ABCN";
	nominal_voltage 240;
	line1_voltage 7199.558+0.0j;
	line2_voltage -3599.779-6235.000j;
	line3_voltage -3599.779+6235.000j;
}
object transformer:174  {
	phases "A|B|C|N";
	from 181_4645;
	to 181_4645_C_M;
	configuration transformer_configuration:102;
}

object meter:175 {
	name 181_4645_C_M;
	type POLYPHASE;
	phases "ABCN";
	nominal_voltage 240;
	line1_voltage 7199.558+0.0j;
	line2_voltage -3599.779-6235.000j;
	line3_voltage -3599.779+6235.000j;
}
object transformer:176  {
	phases "B|N";
	from 181_4646;
	to 181_4646_CB_TX1;
	configuration transformer_configuration:64;
}

object triplex_node:177 {
	name 181_4646_CB_TX1;
	phases "B|N";
	line1_voltage 120;
	line2_voltage 120;
	lineN_voltage 0;
}

object meter:178 {
	name 181_4646_CB_TX1_M;
	phases "BN";
	type SINGLEPHASE;
	line1_voltage 120;
	line2_voltage 120;
	line3_voltage 0;
}

object triplex_line:179 {
	name 181_4646_CB_TXL;
	from 181_4646_CB_TX1;
	to 181_4646_CB_TX1_M;
	length 30;
	configuration triplex_line_configuration:1;
}

object triplex_node:180 {
	name 181_4646_CB_TX2;
	parent 181_4646_CB_TX1_M;
	latitude 51N32'36.647";
	longitude 113W51'3.073";
	phases "B|N";
	phaseB_VA 6435.22304524123+1906.93630401834j;
	line1_voltage 120;
	line2_voltage 120;
	lineN_voltage 0;
}

object transformer:181  {
	phases "A|B|C|N";
	from 181_4659;
	to 181_4659_C_M;
	configuration transformer_configuration:102;
}

object meter:182 {
	name 181_4659_C_M;
	type POLYPHASE;
	phases "ABCN";
	nominal_voltage 240;
	line1_voltage 7199.558+0.0j;
	line2_voltage -3599.779-6235.000j;
	line3_voltage -3599.779+6235.000j;
}
object transformer:183  {
	phases "A|B|C|N";
	from 181_4661;
	to 181_4661_C_M;
	configuration transformer_configuration:98;
}

object meter:184 {
	name 181_4661_C_M;
	type POLYPHASE;
	phases "ABCN";
	nominal_voltage 240;
	line1_voltage 7199.558+0.0j;
	line2_voltage -3599.779-6235.000j;
	line3_voltage -3599.779+6235.000j;
}
object transformer:185  {
	phases "A|B|C|N";
	from 181_4695;
	to 181_4695_C_M;
	configuration transformer_configuration:102;
}

object meter:186 {
	name 181_4695_C_M;
	type POLYPHASE;
	phases "ABCN";
	nominal_voltage 240;
	line1_voltage 7199.558+0.0j;
	line2_voltage -3599.779-6235.000j;
	line3_voltage -3599.779+6235.000j;
}
object transformer:187  {
	phases "A|B|C|N";
	from 181_4696;
	to 181_4696_C_M;
	configuration transformer_configuration:101;
}

object meter:188 {
	name 181_4696_C_M;
	type POLYPHASE;
	phases "ABCN";
	nominal_voltage 240;
	line1_voltage 7199.558+0.0j;
	line2_voltage -3599.779-6235.000j;
	line3_voltage -3599.779+6235.000j;
}
object transformer:189  {
	phases "B|N";
	from 181_4736;
	to 181_4736_CB_TX1;
	configuration transformer_configuration:64;
}

object triplex_node:190 {
	name 181_4736_CB_TX1;
	phases "B|N";
	line1_voltage 120;
	line2_voltage 120;
	lineN_voltage 0;
}

object meter:191 {
	name 181_4736_CB_TX1_M;
	phases "BN";
	type SINGLEPHASE;
	line1_voltage 120;
	line2_voltage 120;
	line3_voltage 0;
}

object triplex_line:192 {
	name 181_4736_CB_TXL;
	from 181_4736_CB_TX1;
	to 181_4736_CB_TX1_M;
	length 30;
	configuration triplex_line_configuration:1;
}

object triplex_node:193 {
	name 181_4736_CB_TX2;
	parent 181_4736_CB_TX1_M;
	latitude 51N32'27.419";
	longitude 113W51'18.625";
	phases "B|N";
	phaseB_VA 6435.22304524123+1906.93630401834j;
	line1_voltage 120;
	line2_voltage 120;
	lineN_voltage 0;
}

object transformer:194  {
	phases "A|B|C|N";
	from 181_73247;
	to 181_73247_C_M;
	configuration transformer_configuration:105;
}

object meter:195 {
	name 181_73247_C_M;
	type POLYPHASE;
	phases "ABCN";
	nominal_voltage 240;
	line1_voltage 7199.558+0.0j;
	line2_voltage -3599.779-6235.000j;
	line3_voltage -3599.779+6235.000j;
}
object transformer:196  {
	phases "A|B|C|N";
	from 181_75803;
	to 181_75803_C_M;
	configuration transformer_configuration:106;
}

object meter:197 {
	name 181_75803_C_M;
	type POLYPHASE;
	phases "ABCN";
	nominal_voltage 240;
	line1_voltage 7199.558+0.0j;
	line2_voltage -3599.779-6235.000j;
	line3_voltage -3599.779+6235.000j;
}
object transformer:198  {
	phases "A|N";
	from 181_76777;
	to 181_76777_CA_TX1;
	configuration transformer_configuration:58;
}

object triplex_node:199 {
	name 181_76777_CA_TX1;
	phases "A|N";
	line1_voltage 120;
	line2_voltage 120;
	lineN_voltage 0;
}

object meter:200 {
	name 181_76777_CA_TX1_M;
	phases "AN";
	type SINGLEPHASE;
	line1_voltage 120;
	line2_voltage 120;
	line3_voltage 0;
}

object triplex_line:201 {
	name 181_76777_CA_TXL;
	from 181_76777_CA_TX1;
	to 181_76777_CA_TX1_M;
	length 30;
	configuration triplex_line_configuration:1;
}

object triplex_node:202 {
	name 181_76777_CA_TX2;
	parent 181_76777_CA_TX1_M;
	latitude 51N33'18.987";
	longitude 113W51'23.186";
	phases "A|N";
	phaseA_VA 10260.3761586122+3061.25383882426j;
	line1_voltage 120;
	line2_voltage 120;
	lineN_voltage 0;
}

object transformer:203  {
	phases "A|B|C|N";
	from 181_26659;
	to 181_26659_C_M;
	configuration transformer_configuration:108;
}

object meter:204 {
	name 181_26659_C_M;
	type POLYPHASE;
	phases "ABCN";
	nominal_voltage 240;
	line1_voltage 7199.558+0.0j;
	line2_voltage -3599.779-6235.000j;
	line3_voltage -3599.779+6235.000j;
}
object transformer:205  {
	phases "A|B|C|N";
	from 181_26721;
	to 181_26721_C_M;
	configuration transformer_configuration:109;
}

object meter:206 {
	name 181_26721_C_M;
	type POLYPHASE;
	phases "ABCN";
	nominal_voltage 240;
	line1_voltage 7199.558+0.0j;
	line2_voltage -3599.779-6235.000j;
	line3_voltage -3599.779+6235.000j;
}
object transformer:207  {
	phases "A|B|C|N";
	from 181_104923;
	to 181_104923_I_M;
	configuration transformer_configuration:108;
}

object meter:208 {
	name 181_104923_I_M;
	type POLYPHASE;
	phases "ABCN";
	nominal_voltage 240;
	line1_voltage 7199.558+0.0j;
	line2_voltage -3599.779-6235.000j;
	line3_voltage -3599.779+6235.000j;
}
object transformer:209  {
	phases "A|N";
	from 181_132780;
	to 181_132780_CA_TX1;
	configuration transformer_configuration:58;
}

object triplex_node:210 {
	name 181_132780_CA_TX1;
	phases "A|N";
	line1_voltage 120;
	line2_voltage 120;
	lineN_voltage 0;
}

object meter:211 {
	name 181_132780_CA_TX1_M;
	phases "AN";
	type SINGLEPHASE;
	line1_voltage 120;
	line2_voltage 120;
	line3_voltage 0;
}

object triplex_line:212 {
	name 181_132780_CA_TXL;
	from 181_132780_CA_TX1;
	to 181_132780_CA_TX1_M;
	length 30;
	configuration triplex_line_configuration:1;
}

object triplex_node:213 {
	name 181_132780_CA_TX2;
	parent 181_132780_CA_TX1_M;
	latitude 51N33'19.279";
	longitude 113W51'29.731";
	phases "A|N";
	phaseA_VA 10260.3761586122+3061.25383882426j;
	line1_voltage 120;
	line2_voltage 120;
	lineN_voltage 0;
}

object transformer:214  {
	phases "A|B|C|N";
	from 181_16240;
	to 181_16240_C_M;
	configuration transformer_configuration:110;
}

object meter:215 {
	name 181_16240_C_M;
	type POLYPHASE;
	phases "ABCN";
	nominal_voltage 240;
	line1_voltage 7199.558+0.0j;
	line2_voltage -3599.779-6235.000j;
	line3_voltage -3599.779+6235.000j;
}
object transformer:216  {
	phases "A|B|C|N";
	from 181_16223;
	to 181_16223_C_M;
	configuration transformer_configuration:110;
}

object meter:217 {
	name 181_16223_C_M;
	type POLYPHASE;
	phases "ABCN";
	nominal_voltage 240;
	line1_voltage 7199.558+0.0j;
	line2_voltage -3599.779-6235.000j;
	line3_voltage -3599.779+6235.000j;
}
object transformer:218  {
	phases "A|N";
	from 181_16249;
	to 181_16249_CA_TX1;
	configuration transformer_configuration:58;
}

object triplex_node:219 {
	name 181_16249_CA_TX1;
	phases "A|N";
	line1_voltage 120;
	line2_voltage 120;
	lineN_voltage 0;
}

object meter:220 {
	name 181_16249_CA_TX1_M;
	phases "AN";
	type SINGLEPHASE;
	line1_voltage 120;
	line2_voltage 120;
	line3_voltage 0;
}

object triplex_line:221 {
	name 181_16249_CA_TXL;
	from 181_16249_CA_TX1;
	to 181_16249_CA_TX1_M;
	length 30;
	configuration triplex_line_configuration:1;
}

object triplex_node:222 {
	name 181_16249_CA_TX2;
	parent 181_16249_CA_TX1_M;
	latitude 51N33'41.292";
	longitude 113W51'6.462";
	phases "A|N";
	phaseA_VA 10260.3761586122+3061.25383882426j;
	line1_voltage 120;
	line2_voltage 120;
	lineN_voltage 0;
}

object transformer:223  {
	phases "A|B|C|N";
	from 181_16300;
	to 181_16300_C_M;
	configuration transformer_configuration:106;
}

object meter:224 {
	name 181_16300_C_M;
	type POLYPHASE;
	phases "ABCN";
	nominal_voltage 240;
	line1_voltage 7199.558+0.0j;
	line2_voltage -3599.779-6235.000j;
	line3_voltage -3599.779+6235.000j;
}
object transformer:225  {
	phases "A|B|C|N";
	from 181_16329;
	to 181_16329_C_M;
	configuration transformer_configuration:110;
}

object meter:226 {
	name 181_16329_C_M;
	type POLYPHASE;
	phases "ABCN";
	nominal_voltage 240;
	line1_voltage 7199.558+0.0j;
	line2_voltage -3599.779-6235.000j;
	line3_voltage -3599.779+6235.000j;
}
object transformer:227  {
	phases "B|N";
	from 181_16335;
	to 181_16335_CB_TX1;
	configuration transformer_configuration:74;
}

object triplex_node:228 {
	name 181_16335_CB_TX1;
	phases "B|N";
	line1_voltage 120;
	line2_voltage 120;
	lineN_voltage 0;
}

object meter:229 {
	name 181_16335_CB_TX1_M;
	phases "BN";
	type SINGLEPHASE;
	line1_voltage 120;
	line2_voltage 120;
	line3_voltage 0;
}

object triplex_line:230 {
	name 181_16335_CB_TXL;
	from 181_16335_CB_TX1;
	to 181_16335_CB_TX1_M;
	length 30;
	configuration triplex_line_configuration:1;
}

object triplex_node:231 {
	name 181_16335_CB_TX2;
	parent 181_16335_CB_TX1_M;
	latitude 51N33'35.957";
	longitude 113W50'52.652";
	phases "B|N";
	phaseB_VA 10725.3717420687+3178.22717336391j;
	line1_voltage 120;
	line2_voltage 120;
	lineN_voltage 0;
}

object transformer:232  {
	phases "A|B|C|N";
	from 181_16348;
	to 181_16348_C_M;
	configuration transformer_configuration:106;
}

object meter:233 {
	name 181_16348_C_M;
	type POLYPHASE;
	phases "ABCN";
	nominal_voltage 240;
	line1_voltage 7199.558+0.0j;
	line2_voltage -3599.779-6235.000j;
	line3_voltage -3599.779+6235.000j;
}
object transformer:234  {
	phases "B|N";
	from 181_16371;
	to 181_16371_CB_TX1;
	configuration transformer_configuration:74;
}

object triplex_node:235 {
	name 181_16371_CB_TX1;
	phases "B|N";
	line1_voltage 120;
	line2_voltage 120;
	lineN_voltage 0;
}

object meter:236 {
	name 181_16371_CB_TX1_M;
	phases "BN";
	type SINGLEPHASE;
	line1_voltage 120;
	line2_voltage 120;
	line3_voltage 0;
}

object triplex_line:237 {
	name 181_16371_CB_TXL;
	from 181_16371_CB_TX1;
	to 181_16371_CB_TX1_M;
	length 30;
	configuration triplex_line_configuration:1;
}

object triplex_node:238 {
	name 181_16371_CB_TX2;
	parent 181_16371_CB_TX1_M;
	latitude 51N33'33.438";
	longitude 113W51'1.432";
	phases "B|N";
	phaseB_VA 10725.3717420687+3178.22717336391j;
	line1_voltage 120;
	line2_voltage 120;
	lineN_voltage 0;
}

object transformer:239  {
	phases "A|B|C|N";
	from 181_16499;
	to 181_16499_C_M;
	configuration transformer_configuration:106;
}

object meter:240 {
	name 181_16499_C_M;
	type POLYPHASE;
	phases "ABCN";
	nominal_voltage 240;
	line1_voltage 7199.558+0.0j;
	line2_voltage -3599.779-6235.000j;
	line3_voltage -3599.779+6235.000j;
}
object transformer:241  {
	phases "B|N";
	from 181_16605;
	to 181_16605_CB_TX1;
	configuration transformer_configuration:75;
}

object triplex_node:242 {
	name 181_16605_CB_TX1;
	phases "B|N";
	line1_voltage 120;
	line2_voltage 120;
	lineN_voltage 0;
}

object meter:243 {
	name 181_16605_CB_TX1_M;
	phases "BN";
	type SINGLEPHASE;
	line1_voltage 120;
	line2_voltage 120;
	line3_voltage 0;
}

object triplex_line:244 {
	name 181_16605_CB_TXL;
	from 181_16605_CB_TX1;
	to 181_16605_CB_TX1_M;
	length 30;
	configuration triplex_line_configuration:1;
}

object triplex_node:245 {
	name 181_16605_CB_TX2;
	parent 181_16605_CB_TX1_M;
	latitude 51N33'17.439";
	longitude 113W51'31.562";
	phases "B|N";
	phaseB_VA 4290.14869682749+1271.29086934556j;
	line1_voltage 120;
	line2_voltage 120;
	lineN_voltage 0;
}

object transformer:246  {
	phases "A|B|C|N";
	from 181_16624;
	to 181_16624_C_M;
	configuration transformer_configuration:105;
}

object meter:247 {
	name 181_16624_C_M;
	type POLYPHASE;
	phases "ABCN";
	nominal_voltage 240;
	line1_voltage 7199.558+0.0j;
	line2_voltage -3599.779-6235.000j;
	line3_voltage -3599.779+6235.000j;
}
object transformer:248  {
	phases "B|N";
	from 181_16702;
	to 181_16702_CB_TX1;
	configuration transformer_configuration:75;
}

object triplex_node:249 {
	name 181_16702_CB_TX1;
	phases "B|N";
	line1_voltage 120;
	line2_voltage 120;
	lineN_voltage 0;
}

object meter:250 {
	name 181_16702_CB_TX1_M;
	phases "BN";
	type SINGLEPHASE;
	line1_voltage 120;
	line2_voltage 120;
	line3_voltage 0;
}

object triplex_line:251 {
	name 181_16702_CB_TXL;
	from 181_16702_CB_TX1;
	to 181_16702_CB_TX1_M;
	length 30;
	configuration triplex_line_configuration:1;
}

object triplex_node:252 {
	name 181_16702_CB_TX2;
	parent 181_16702_CB_TX1_M;
	latitude 51N33'8.287";
	longitude 113W51'9.365";
	phases "B|N";
	phaseB_VA 4290.14869682749+1271.29086934556j;
	line1_voltage 120;
	line2_voltage 120;
	lineN_voltage 0;
}

object transformer:253  {
	phases "A|B|C|N";
	from 181_26597;
	to 181_26597_I_M;
	configuration transformer_configuration:113;
}

object meter:254 {
	name 181_26597_I_M;
	type POLYPHASE;
	phases "ABCN";
	nominal_voltage 240;
	line1_voltage 7199.558+0.0j;
	line2_voltage -3599.779-6235.000j;
	line3_voltage -3599.779+6235.000j;
}
object transformer:255  {
	phases "A|B|C|N";
	from 181_17019;
	to 181_17019_I_M;
	configuration transformer_configuration:105;
}

object meter:256 {
	name 181_17019_I_M;
	type POLYPHASE;
	phases "ABCN";
	nominal_voltage 240;
	line1_voltage 7199.558+0.0j;
	line2_voltage -3599.779-6235.000j;
	line3_voltage -3599.779+6235.000j;
}
object transformer:257  {
	phases "A|B|C|N";
	from 181_26643;
	to 181_26643_C_M;
	configuration transformer_configuration:108;
}

object meter:258 {
	name 181_26643_C_M;
	type POLYPHASE;
	phases "ABCN";
	nominal_voltage 240;
	line1_voltage 7199.558+0.0j;
	line2_voltage -3599.779-6235.000j;
	line3_voltage -3599.779+6235.000j;
}
object transformer:259  {
	phases "A|N";
	from 181_17142;
	to 181_17142_CA_TX1;
	configuration transformer_configuration:58;
}

object triplex_node:260 {
	name 181_17142_CA_TX1;
	phases "A|N";
	line1_voltage 120;
	line2_voltage 120;
	lineN_voltage 0;
}

object meter:261 {
	name 181_17142_CA_TX1_M;
	phases "AN";
	type SINGLEPHASE;
	line1_voltage 120;
	line2_voltage 120;
	line3_voltage 0;
}

object triplex_line:262 {
	name 181_17142_CA_TXL;
	from 181_17142_CA_TX1;
	to 181_17142_CA_TX1_M;
	length 30;
	configuration triplex_line_configuration:1;
}

object triplex_node:263 {
	name 181_17142_CA_TX2;
	parent 181_17142_CA_TX1_M;
	latitude 51N32'37.058";
	longitude 113W51'12.019";
	phases "A|N";
	phaseA_VA 10260.3761586122+3061.25383882426j;
	line1_voltage 120;
	line2_voltage 120;
	lineN_voltage 0;
}

object transformer:264  {
	phases "A|B|C|N";
	from 181_17187;
	to 181_17187_C_M;
	configuration transformer_configuration:106;
}

object meter:265 {
	name 181_17187_C_M;
	type POLYPHASE;
	phases "ABCN";
	nominal_voltage 240;
	line1_voltage 7199.558+0.0j;
	line2_voltage -3599.779-6235.000j;
	line3_voltage -3599.779+6235.000j;
}
object transformer:266  {
	phases "A|B|C|N";
	from 181_17191;
	to 181_17191_C_M;
	configuration transformer_configuration:105;
}

object meter:267 {
	name 181_17191_C_M;
	type POLYPHASE;
	phases "ABCN";
	nominal_voltage 240;
	line1_voltage 7199.558+0.0j;
	line2_voltage -3599.779-6235.000j;
	line3_voltage -3599.779+6235.000j;
}
object transformer:268  {
	phases "A|B|C|N";
	from 181_17194;
	to 181_17194_C_M;
	configuration transformer_configuration:110;
}

object meter:269 {
	name 181_17194_C_M;
	type POLYPHASE;
	phases "ABCN";
	nominal_voltage 240;
	line1_voltage 7199.558+0.0j;
	line2_voltage -3599.779-6235.000j;
	line3_voltage -3599.779+6235.000j;
}
object transformer:270  {
	phases "A|B|C|N";
	from 181_26685;
	to 181_26685_C_M;
	configuration transformer_configuration:106;
}

object meter:271 {
	name 181_26685_C_M;
	type POLYPHASE;
	phases "ABCN";
	nominal_voltage 240;
	line1_voltage 7199.558+0.0j;
	line2_voltage -3599.779-6235.000j;
	line3_voltage -3599.779+6235.000j;
}
object transformer:272  {
	phases "A|B|C|N";
	from 181_17209;
	to 181_17209_C_M;
	configuration transformer_configuration:105;
}

object meter:273 {
	name 181_17209_C_M;
	type POLYPHASE;
	phases "ABCN";
	nominal_voltage 240;
	line1_voltage 7199.558+0.0j;
	line2_voltage -3599.779-6235.000j;
	line3_voltage -3599.779+6235.000j;
}
object transformer:274  {
	phases "A|B|C|N";
	from 181_17222;
	to 181_17222_C_M;
	configuration transformer_configuration:113;
}

object meter:275 {
	name 181_17222_C_M;
	type POLYPHASE;
	phases "ABCN";
	nominal_voltage 240;
	line1_voltage 7199.558+0.0j;
	line2_voltage -3599.779-6235.000j;
	line3_voltage -3599.779+6235.000j;
}
object transformer:276  {
	phases "A|B|C|N";
	from 181_17286;
	to 181_17286_C_M;
	configuration transformer_configuration:113;
}

object meter:277 {
	name 181_17286_C_M;
	type POLYPHASE;
	phases "ABCN";
	nominal_voltage 240;
	line1_voltage 7199.558+0.0j;
	line2_voltage -3599.779-6235.000j;
	line3_voltage -3599.779+6235.000j;
}
object transformer:278  {
	phases "A|B|C|N";
	from 181_17323;
	to 181_17323_C_M;
	configuration transformer_configuration:114;
}

object meter:279 {
	name 181_17323_C_M;
	type POLYPHASE;
	phases "ABCN";
	nominal_voltage 240;
	line1_voltage 7199.558+0.0j;
	line2_voltage -3599.779-6235.000j;
	line3_voltage -3599.779+6235.000j;
}
object transformer:280  {
	phases "A|B|C|N";
	from 181_17324;
	to 181_17324_C_M;
	configuration transformer_configuration:114;
}

object meter:281 {
	name 181_17324_C_M;
	type POLYPHASE;
	phases "ABCN";
	nominal_voltage 240;
	line1_voltage 7199.558+0.0j;
	line2_voltage -3599.779-6235.000j;
	line3_voltage -3599.779+6235.000j;
}
object transformer:282  {
	phases "A|B|C|N";
	from 181_17331;
	to 181_17331_C_M;
	configuration transformer_configuration:110;
}

object meter:283 {
	name 181_17331_C_M;
	type POLYPHASE;
	phases "ABCN";
	nominal_voltage 240;
	line1_voltage 7199.558+0.0j;
	line2_voltage -3599.779-6235.000j;
	line3_voltage -3599.779+6235.000j;
}
object transformer:284  {
	phases "A|B|C|N";
	from 181_16622;
	to 181_16622_C_M;
	configuration transformer_configuration:115;
}

object meter:285 {
	name 181_16622_C_M;
	type POLYPHASE;
	phases "ABCN";
	nominal_voltage 240;
	line1_voltage 7199.558+0.0j;
	line2_voltage -3599.779-6235.000j;
	line3_voltage -3599.779+6235.000j;
}
object transformer:286  {
	phases "A|B|C|N";
	from 181_26710;
	to 181_26710_C_M;
	configuration transformer_configuration:113;
}

object meter:287 {
	name 181_26710_C_M;
	type POLYPHASE;
	phases "ABCN";
	nominal_voltage 240;
	line1_voltage 7199.558+0.0j;
	line2_voltage -3599.779-6235.000j;
	line3_voltage -3599.779+6235.000j;
}
object transformer:288  {
	phases "A|B|C|N";
	from 181_31356;
	to 181_31356_C_M;
	configuration transformer_configuration:110;
}

object meter:289 {
	name 181_31356_C_M;
	type POLYPHASE;
	phases "ABCN";
	nominal_voltage 240;
	line1_voltage 7199.558+0.0j;
	line2_voltage -3599.779-6235.000j;
	line3_voltage -3599.779+6235.000j;
}
object overhead_line_conductor:19 {
	name 123.3 AAAC;
	rating.summer.continuous 256.0 ;
	geometric_mean_radius 0.012 ft;
	resistance 0.18;
}

object overhead_line_conductor:35 {
	name 559.5 AAAC;
	rating.summer.continuous 663.0 ;
	geometric_mean_radius 0.0271 ft;
	resistance 0.045;
}

object overhead_line_conductor:14 {
	name 4 CW;
	rating.summer.continuous 180.0 ;
	geometric_mean_radius 0.0034 ft;
	resistance 0.286;
}

object overhead_line_conductor:11 {
	name 4 CU;
	rating.summer.continuous 149.0 ;
	geometric_mean_radius 0.244 ft;
	resistance 0.306;
}

object overhead_line_conductor:20 {
	name 1/0 AAAC;
	rating.summer.continuous 266.0 ;
	geometric_mean_radius 0.368 ft;
	resistance 1.94304;
}

object overhead_line_conductor:16 {
	name 2 CU;
	rating.summer.continuous 204.0 ;
	geometric_mean_radius 0.292 ft;
	resistance 1.5418;
}

object overhead_line_conductor:28 {
	name 312.8 AAAC;
	rating.summer.continuous 460.0 ;
	geometric_mean_radius 0.0202 ft;
	resistance 0.071;
}

object overhead_line_conductor:27 {
	name 336.4 AAC;
	rating.summer.continuous 443.0 ;
	geometric_mean_radius 0.666 ft;
	resistance 3.5165;
}

object underground_line_conductor:43 {
	name 1/0 AAC (Conc);
	rating.summer.continuous 142.0 ;
	outer_diameter 1.27;