clock { 
	 timestamp '2000-01-01 0:00:00';
	 timezone EST+5EDT;
}

module powerflow;
module network;

object powerflow.node {
	phases "ABCN";
	nominal_voltage 2400.00;
	name Bob;
}


object network.node {
	name SwingBus;
	type SWING;
}
	