//*********************************************
// $Id: R1-12.47-1.glm 1132 2008-11-18 22:36:10Z dchassin $ 
//*********************************************

clock { 
	 timezone PST+8PDT;
	 timestamp '2000-01-01 0:00:00';


//*********************************************
// modules
module powerflow;


object triplex_line_conductor: {
	name 1/0 AA triplex;
	resistance 0.97;
	geometric_mean_radius 0.0111;
}

object triplex_line_configuration:1 {
	conductor_1 1/0 AA triplex;
	conductor_2 1/0 AA triplex;
	conductor_N 1/0 AA triplex;
	insulation_thickness 0.08;
	diameter 0.368;
}

object transformer:104  {
	phases "AS";
	from Node_24592757388;
	to Node_24592757388_RA_M;
	configuration transformer_configuration:51;
}

object triplex_meter:105 {
	name Node_24592757388_RA_M;
	phases "AS";
	nominal_voltage 120;
	voltage_1 120;
	voltage_2 120;
	voltage_N 0;
}

object triplex_node:106 {
	name Node_24592757388_RA_TX;
	parent Node_24592757388_RA_M;
	phases AS;
	nominal_voltage 120;
	latitude 48N21'21.831";
	longitude 121W58'7.429";
	power_1 3.79505555562585+4.22366279105022j;
	voltage_1 120;
	voltage_2 120;
	voltage_N 0;
}

object transformer:107  {
	phases "AS";
	from Node_24592748687;
	to Node_24592748687_RA_M;
	configuration transformer_configuration:52;
}

object triplex_meter:108 {
	name Node_24592748687_RA_M;
	phases "AS";
	nominal_voltage 120;
	voltage_1 120;
	voltage_2 120;
	voltage_N 0;
}

object triplex_node:109 {
	name Node_24592748687_RA_TX;
	parent Node_24592748687_RA_M;
	phases AS;
	nominal_voltage 120;
	latitude 48N21'23.243";
	longitude 121W58'6.419";
	power_1 4.84514374334757+5.39234618469033j;
	voltage_1 120;
	voltage_2 120;
	voltage_N 0;
}

object transformer:110  {
	phases "AS";
	from Node_24592746786;
	to Node_24592746786_RA_M;
	configuration transformer_configuration:53;
}

object triplex_meter:111 {
	name Node_24592746786_RA_M;
	phases "AS";
	nominal_voltage 120;
	voltage_1 120;
	voltage_2 120;
	voltage_N 0;
}

object triplex_node:112 {
	name Node_24592746786_RA_TX;
	parent Node_24592746786_RA_M;
	phases AS;
	nominal_voltage 120;
	latitude 48N21'25.775";
	longitude 121W58'5.969";
	power_1 6.3005291263303+7.01210036184066j;
	voltage_1 120;
	voltage_2 120;
	voltage_N 0;
}

object transformer:113  {
	phases "AS";
	from Node_24592745185;
	to Node_24592745185_RA_M;
	configuration transformer_configuration:54;
}

object triplex_meter:114 {
	name Node_24592745185_RA_M;
	phases "AS";
	nominal_voltage 120;
	voltage_1 120;
	voltage_2 120;
	voltage_N 0;
}

object triplex_node:115 {
	name Node_24592745185_RA_TX;
	parent Node_24592745185_RA_M;
	phases AS;
	nominal_voltage 120;
	latitude 48N21'28.666";
	longitude 121W58'5.263";
	power_1 10.1876976808791+11.3382792400523j;
	voltage_1 120;
	voltage_2 120;
	voltage_N 0;
}

object transformer:116  {
	phases "AS";
	from Node_24592733184;
	to Node_24592733184_RA_M;
	configuration transformer_configuration:51;
}

object triplex_meter:117 {
	name Node_24592733184_RA_M;
	phases "AS";
	nominal_voltage 120;
	voltage_1 120;
	voltage_2 120;
	voltage_N 0;
}

object triplex_node:118 {
	name Node_24592733184_RA_TX;
	parent Node_24592733184_RA_M;
	phases AS;
	nominal_voltage 120;
	latitude 48N21'30.279";
	longitude 121W58'4.477";
	power_1 4.03454935282554+4.49020461766989j;
	voltage_1 120;
	voltage_2 120;
	voltage_N 0;
}

object transformer:119  {
	phases "AS";
	from Node_24592731183;
	to Node_24592731183_RA_M;
	configuration transformer_configuration:55;
}

object triplex_meter:120 {
	name Node_24592731183_RA_M;
	phases "AS";
	nominal_voltage 120;
	voltage_1 120;
	voltage_2 120;
	voltage_N 0;
}

object triplex_node:121 {
	name Node_24592731183_RA_TX;
	parent Node_24592731183_RA_M;
	phases AS;
	nominal_voltage 120;
	latitude 48N21'31.892";
	longitude 121W57'58.316";
	power_1 2.52389617048904+2.80894078822272j;
	voltage_1 120;
	voltage_2 120;
	voltage_N 0;
}

object transformer:122  {
	phases "BS";
	from Node_24592690478;
	to Node_24592690478_RB_M;
	configuration transformer_configuration:65;
}

object triplex_meter:123 {
	name Node_24592690478_RB_M;
	phases "BS";
	nominal_voltage 120;
	voltage_1 -60.000-103.923j;
	voltage_2 -60.000-103.923j;
	voltage_N 0;
}

object triplex_node:124 {
	name Node_24592690478_RB_TX;
	parent Node_24592690478_RB_M;
	phases BS;
	nominal_voltage 120;
	latitude 48N21'32.264";
	longitude 121W58'14.091";
	power_1 3.05270720089676+1.19174024133876j;
	voltage_1 -60.000-103.923j;
	voltage_2 -60.000-103.923j;
	voltage_N 0;
}

object transformer:125  {
	phases "BS";
	from Node_24592672677;
	to Node_24592672677_RB_M;
	configuration transformer_configuration:66;
}

object triplex_meter:126 {
	name Node_24592672677_RB_M;
	phases "BS";
	nominal_voltage 120;
	voltage_1 -60.000-103.923j;
	voltage_2 -60.000-103.923j;
	voltage_N 0;
}

object triplex_node:127 {
	name Node_24592672677_RB_TX;
	parent Node_24592672677_RB_M;
	phases BS;
	nominal_voltage 120;
	latitude 48N21'33.878";
	longitude 121W58'12.615";
	power_1 8.78584023672728+3.42988654824327j;
	voltage_1 -60.000-103.923j;
	voltage_2 -60.000-103.923j;
	voltage_N 0;
}

object transformer:128  {
	phases "AS";
	from Node_24592764589;
	to Node_24592764589_RA_M;
	configuration transformer_configuration:53;
}

object triplex_meter:129 {
	name Node_24592764589_RA_M;
	phases "AS";
	nominal_voltage 120;
	voltage_1 120;
	voltage_2 120;
	voltage_N 0;
}

object triplex_node:130 {
	name Node_24592764589_RA_TX;
	parent Node_24592764589_RA_M;
	phases AS;
	nominal_voltage 120;
	latitude 48N21'34.145";
	longitude 121W58'1.846";
	power_1 6.63213592245295+7.38115827562174j;
	voltage_1 120;
	voltage_2 120;
	voltage_N 0;
}

object transformer:131  {
	phases "AS";
	from Node_24586075846;
	to Node_24586075846_RA_M;
	configuration transformer_configuration:51;
}

object triplex_meter:132 {
	name Node_24586075846_RA_M;
	phases "AS";
	nominal_voltage 120;
	voltage_1 120;
	voltage_2 120;
	voltage_N 0;
}

object triplex_node:133 {
	name Node_24586075846_RA_TX;
	parent Node_24586075846_RA_M;
	phases AS;
	nominal_voltage 120;
	latitude 48N21'34.962";
	longitude 121W57'50.147";
	power_1 3.94243635390259+4.38768853050848j;
	voltage_1 120;
	voltage_2 120;
	voltage_N 0;
}

object transformer:134  {
	phases "AS";
	from Node_24592784793;
	to Node_24592784793_RA_M;
	configuration transformer_configuration:56;
}

object triplex_meter:135 {
	name Node_24592784793_RA_M;
	phases "AS";
	nominal_voltage 120;
	voltage_1 120;
	voltage_2 120;
	voltage_N 0;
}

object triplex_node:136 {
	name Node_24592784793_RA_TX;
	parent Node_24592784793_RA_M;
	phases AS;
	nominal_voltage 120;
	latitude 48N21'35.030";
	longitude 121W57'56.583";
	power_1 2.52389617048904+2.80894078822272j;
	voltage_1 120;
	voltage_2 120;
	voltage_N 0;
}

object transformer:137  {
	phases "AS";
	from Node_24586069743;
	to Node_24586069743_RA_M;
	configuration transformer_configuration:55;
}

object triplex_meter:138 {
	name Node_24586069743_RA_M;
	phases "AS";
	nominal_voltage 120;
	voltage_1 120;
	voltage_2 120;
	voltage_N 0;
}

object triplex_node:139 {
	name Node_24586069743_RA_TX;
	parent Node_24586069743_RA_M;
	phases AS;
	nominal_voltage 120;
	latitude 48N21'35.623";
	longitude 121W57'43.626";
	power_1 2.11859897522803+2.3578700047125j;
	voltage_1 120;
	voltage_2 120;
	voltage_N 0;
}

object transformer:140  {
	phases "BS";
	from Node_24592670876;
	to Node_24592670876_RB_M;
	configuration transformer_configuration:67;
}

object triplex_meter:141 {
	name Node_24592670876_RB_M;
	phases "BS";
	nominal_voltage 120;
	voltage_1 -60.000-103.923j;
	voltage_2 -60.000-103.923j;
	voltage_N 0;
}

object triplex_node:142 {
	name Node_24592670876_RB_TX;
	parent Node_24592670876_RB_M;
	phases BS;
	nominal_voltage 120;
	latitude 48N21'35.646";
	longitude 121W58'12.499";
	power_1 14.0722356334022+5.49363184422016j;
	voltage_1 -60.000-103.923j;
	voltage_2 -60.000-103.923j;
	voltage_N 0;
}

object transformer:143  {
	phases "AS";
	from Node_24586067542;
	to Node_24586067542_RA_M;
	configuration transformer_configuration:55;
}

object triplex_meter:144 {
	name Node_24586067542_RA_M;
	phases "AS";
	nominal_voltage 120;
	voltage_1 120;
	voltage_2 120;
	voltage_N 0;
}

object triplex_node:145 {
	name Node_24586067542_RA_TX;
	parent Node_24586067542_RA_M;
	phases AS;
	nominal_voltage 120;
	latitude 48N21'36.817";
	longitude 121W57'39.915";
	power_1 2.48705097091986+2.76793435335815j;
	voltage_1 120;
	voltage_2 120;
	voltage_N 0;
}

object transformer:146  {
	phases "AS";
	from Node_24592776390;
	to Node_24592776390_RA_M;
	configuration transformer_configuration:52;
}

object triplex_meter:147 {
	name Node_24592776390_RA_M;
	phases "AS";
	nominal_voltage 120;
	voltage_1 120;
	voltage_2 120;
	voltage_N 0;
}

object triplex_node:148 {
	name Node_24592776390_RA_TX;
	parent Node_24592776390_RA_M;
	phases AS;
	nominal_voltage 120;
	latitude 48N21'37.461";
	longitude 121W58'1.749";
	power_1 5.37939913710072+5.98693949022652j;
	voltage_1 120;
	voltage_2 120;
	voltage_N 0;
}

object transformer:149  {
	phases "AS";
	from Node_24586065741;
	to Node_24586065741_RA_M;
	configuration transformer_configuration:57;
}

object triplex_meter:150 {
	name Node_24586065741_RA_M;
	phases "AS";
	nominal_voltage 120;
	voltage_1 120;
	voltage_2 120;
	voltage_N 0;
}

object triplex_node:151 {
	name Node_24586065741_RA_TX;
	parent Node_24586065741_RA_M;
	phases AS;
	nominal_voltage 120;
	latitude 48N21'38.324";
	longitude 121W57'36.383";
	power_1 4.10823975196391+4.57221748739902j;
	voltage_1 120;
	voltage_2 120;
	voltage_N 0;
}

object transformer:152  {
	phases "AS";
	from Node_24592669275;
	to Node_24592669275_RA_M;
	configuration transformer_configuration:57;
}

object triplex_meter:153 {
	name Node_24592669275_RA_M;
	phases "AS";
	nominal_voltage 120;
	voltage_1 120;
	voltage_2 120;
	voltage_N 0;
}

object triplex_node:154 {
	name Node_24592669275_RA_TX;
	parent Node_24592669275_RA_M;
	phases AS;
	nominal_voltage 120;
	latitude 48N21'37.551";
	longitude 121W58'12.378";
	power_1 2.8186577670425+3.13699226713924j;
	voltage_1 120;
	voltage_2 120;
	voltage_N 0;
}

object transformer:155  {
	phases "BS";
	from Node_24592669275;
	to Node_24592669275_RB_M;
	configuration transformer_configuration:67;
}

object triplex_meter:156 {
	name Node_24592669275_RB_M;
	phases "BS";
	nominal_voltage 120;
	voltage_1 -60.000-103.923j;
	voltage_2 -60.000-103.923j;
	voltage_N 0;
}

object triplex_node:157 {
	name Node_24592669275_RB_TX;
	parent Node_24592669275_RB_M;
	phases BS;
	nominal_voltage 120;
	latitude 48N21'37.551";
	longitude 121W58'12.378";
	power_1 11.3918097984684+4.44722577865442j;
	voltage_1 -60.000-103.923j;
	voltage_2 -60.000-103.923j;
	voltage_N 0;
}

object transformer:158  {
	phases "CS";
	from Node_24592669275;
	to Node_24592669275_RC_M;
	configuration transformer_configuration:84;
}

object triplex_meter:159 {
	name Node_24592669275_RC_M;
	phases "CS";
	nominal_voltage 120;
	voltage_1 -60.000+103.923j;
	voltage_2 -60.000+103.923j;
	voltage_N 0;
}

object triplex_node:160 {
	name Node_24592669275_RC_TX;
	parent Node_24592669275_RC_M;
	phases CS;
	nominal_voltage 120;
	latitude 48N21'37.551";
	longitude 121W58'12.378";
	power_1 15.4973173548044+5.9895857876384j;
	voltage_1 -60.000+103.923j;
	voltage_2 -60.000+103.923j;
	voltage_N 0;
}

object transformer:161  {
	phases "AS";
	from Node_24586073045;
	to Node_24586073045_RA_M;
	configuration transformer_configuration:58;
}

object triplex_meter:162 {
	name Node_24586073045_RA_M;
	phases "AS";
	nominal_voltage 120;
	voltage_1 120;
	voltage_2 120;
	voltage_N 0;
}

object triplex_node:163 {
	name Node_24586073045_RA_TX;
	parent Node_24586073045_RA_M;
	phases AS;
	nominal_voltage 120;
	latitude 48N21'38.696";
	longitude 121W57'45.182";
	power_1 5.52677993537746+6.15096522968478j;
	voltage_1 120;
	voltage_2 120;
	voltage_N 0;
}

object transformer:164  {
	phases "AS";
	from Node_24592781792;
	to Node_24592781792_RA_M;
	configuration transformer_configuration:53;
}

object triplex_meter:165 {
	name Node_24592781792_RA_M;
	phases "AS";
	nominal_voltage 120;
	voltage_1 120;
	voltage_2 120;
	voltage_N 0;
}

object triplex_node:166 {
	name Node_24592781792_RA_TX;
	parent Node_24592781792_RA_M;
	phases AS;
	nominal_voltage 120;
	latitude 48N21'39.399";
	longitude 121W57'53.470";
	power_1 6.00576752977684+6.68404888292413j;
	voltage_1 120;
	voltage_2 120;
	voltage_N 0;
}

object transformer:167  {
	phases "AS";
	from Node_24586064340;
	to Node_24586064340_RA_M;
	configuration transformer_configuration:59;
}

object triplex_meter:168 {
	name Node_24586064340_RA_M;
	phases "AS";
	nominal_voltage 120;
	voltage_1 120;
	voltage_2 120;
	voltage_N 0;
}

object triplex_node:169 {
	name Node_24586064340_RA_TX;
	parent Node_24586064340_RA_M;
	phases AS;
	nominal_voltage 120;
	latitude 48N21'39.959";
	longitude 121W57'32.991";
	power_1 6.70582632159132+7.46317114535087j;
	voltage_1 120;
	voltage_2 120;
	voltage_N 0;
}

object transformer:170  {
	phases "AS";
	from Node_24592778791;
	to Node_24592778791_RA_M;
	configuration transformer_configuration:53;
}

object triplex_meter:171 {
	name Node_24592778791_RA_M;
	phases "AS";
	nominal_voltage 120;
	voltage_1 120;
	voltage_2 120;
	voltage_N 0;
}

object triplex_node:172 {
	name Node_24592778791_RA_TX;
	parent Node_24592778791_RA_M;
	phases AS;
	nominal_voltage 120;
	latitude 48N21'40.621";
	longitude 121W57'59.038";
	power_1 5.98734492999225+6.66354566549185j;
	voltage_1 120;
	voltage_2 120;
	voltage_N 0;
}

object transformer:173  {
	phases "BS";
	from Node_24592667074;
	to Node_24592667074_RB_M;
	configuration transformer_configuration:68;
}

object triplex_meter:174 {
	name Node_24592667074_RB_M;
	phases "BS";
	nominal_voltage 120;
	voltage_1 -60.000-103.923j;
	voltage_2 -60.000-103.923j;
	voltage_N 0;
}

object triplex_node:175 {
	name Node_24592667074_RB_TX;
	parent Node_24592667074_RB_M;
	phases BS;
	nominal_voltage 120;
	latitude 48N21'41.234";
	longitude 121W58'12.278";
	power_1 21.5178629526626+8.40031535968056j;
	voltage_1 -60.000-103.923j;
	voltage_2 -60.000-103.923j;
	voltage_N 0;
}

object transformer:176  {
	phases "AS";
	from Node_24586097647;
	to Node_24586097647_RA_M;
	configuration transformer_configuration:55;
}

object triplex_meter:177 {
	name Node_24586097647_RA_M;
	phases "AS";
	nominal_voltage 120;
	voltage_1 120;
	voltage_2 120;
	voltage_N 0;
}

object triplex_node:178 {
	name Node_24586097647_RA_TX;
	parent Node_24586097647_RA_M;
	phases AS;
	nominal_voltage 120;
	latitude 48N21'42.176";
	longitude 121W57'31.757";
	power_1 2.63443176919659+2.93196009281641j;
	voltage_1 120;
	voltage_2 120;
	voltage_N 0;
}

object transformer:179  {
	phases "AS";
	from Node_24585914914;
	to Node_24585914914_RA_M;
	configuration transformer_configuration:57;
}

object triplex_meter:180 {
	name Node_24585914914_RA_M;
	phases "AS";
	nominal_voltage 120;
	voltage_1 120;
	voltage_2 120;
	voltage_N 0;
}

object triplex_node:181 {
	name Node_24585914914_RA_TX;
	parent Node_24585914914_RA_M;
	phases AS;
	nominal_voltage 120;
	latitude 48N21'42.592";
	longitude 121W57'26.751";
	power_1 3.09499676381138+3.44454052862348j;
	voltage_1 120;
	voltage_2 120;
	voltage_N 0;
}

object transformer:182  {
	phases "AS";
	from Node_2459199609;
	to Node_2459199609_RA_M;
	configuration transformer_configuration:56;
}

object triplex_meter:183 {
	name Node_2459199609_RA_M;
	phases "AS";
	nominal_voltage 120;
	voltage_1 120;
	voltage_2 120;
	voltage_N 0;
}

object triplex_node:184 {
	name Node_2459199609_RA_TX;
	parent Node_2459199609_RA_M;
	phases AS;
	nominal_voltage 120;
	latitude 48N21'43.116";
	longitude 121W57'54.783";
	power_1 2.72654476811955+3.03447617997783j;
	voltage_1 120;
	voltage_2 120;
	voltage_N 0;
}

object transformer:185  {
	phases "AS";
	from Node_24586101249;
	to Node_24586101249_RA_M;
	configuration transformer_configuration:56;
}

object triplex_meter:186 {
	name Node_24586101249_RA_M;
	phases "AS";
	nominal_voltage 120;
	voltage_1 120;
	voltage_2 120;
	voltage_N 0;
}

object triplex_node:187 {
	name Node_24586101249_RA_TX;
	parent Node_24586101249_RA_M;
	phases AS;
	nominal_voltage 120;
	latitude 48N21'43.458";
	longitude 121W57'40.405";
	power_1 2.59758656962741+2.89095365795185j;
	voltage_1 120;
	voltage_2 120;
	voltage_N 0;
}

object transformer:188  {
	phases "AS";
	from Node_24585941717;
	to Node_24585941717_RA_M;
	configuration transformer_configuration:57;
}

object triplex_meter:189 {
	name Node_24585941717_RA_M;
	phases "AS";
	nominal_voltage 120;
	voltage_1 120;
	voltage_2 120;
	voltage_N 0;
}

object triplex_node:190 {
	name Node_24585941717_RA_TX;
	parent Node_24585941717_RA_M;
	phases AS;
	nominal_voltage 120;
	latitude 48N21'46.321";
	longitude 121W57'12.342";
	power_1 2.80023516725791+3.11648904970696j;
	voltage_1 120;
	voltage_2 120;
	voltage_N 0;
}

object transformer:191  {
	phases "AS";
	from Node_24592641972;
	to Node_24592641972_RA_M;
	configuration transformer_configuration:60;
}

object triplex_meter:192 {
	name Node_24592641972_RA_M;
	phases "AS";
	nominal_voltage 120;
	voltage_1 120;
	voltage_2 120;
	voltage_N 0;
}

object triplex_node:193 {
	name Node_24592641972_RA_TX;
	parent Node_24592641972_RA_M;
	phases AS;
	nominal_voltage 120;
	latitude 48N21'44.756";
	longitude 121W58'24.709";
	power_1 0.0184225997845915+0.0205032174322826j;
	voltage_1 120;
	voltage_2 120;
	voltage_N 0;
}

object transformer:194  {
	phases "AS";
	from Node_2459195951;
	to Node_2459195951_RA_M;
	configuration transformer_configuration:59;
}

object triplex_meter:195 {
	name Node_2459195951_RA_M;
	phases "AS";
	nominal_voltage 120;
	voltage_1 120;
	voltage_2 120;
	voltage_N 0;
}

object triplex_node:196 {
	name Node_2459195951_RA_TX;
	parent Node_2459195951_RA_M;
	phases AS;
	nominal_voltage 120;
	latitude 48N21'45.749";
	longitude 121W57'47.173";
	power_1 5.58204773473123+6.21247488198163j;
	voltage_1 120;
	voltage_2 120;
	voltage_N 0;
}

object transformer:197  {
	phases "AS";
	from Node_24586126252;
	to Node_24586126252_RA_M;
	configuration transformer_configuration:57;
}

object triplex_meter:198 {
	name Node_24586126252_RA_M;
	phases "AS";
	nominal_voltage 120;
	voltage_1 120;
	voltage_2 120;
	voltage_N 0;
}

object triplex_node:199 {
	name Node_24586126252_RA_TX;
	parent Node_24586126252_RA_M;
	phases AS;
	nominal_voltage 120;
	latitude 48N21'45.924";
	longitude 121W57'35.962";
	power_1 4.20035275088687+4.67473357456044j;
	voltage_1 120;
	voltage_2 120;
	voltage_N 0;
}

object transformer:200  {
	phases "AS";
	from Node_24586123650;
	to Node_24586123650_RA_M;
	configuration transformer_configuration:58;
}

object triplex_meter:201 {
	name Node_24586123650_RA_M;
	phases "AS";
	nominal_voltage 120;
	voltage_1 120;
	voltage_2 120;
	voltage_N 0;
}

object triplex_node:202 {
	name Node_24586123650_RA_TX;
	parent Node_24586123650_RA_M;
	phases AS;
	nominal_voltage 120;
	latitude 48N21'45.944";
	longitude 121W57'31.687";
	power_1 4.97410194183971+5.53586870671631j;
	voltage_1 120;
	voltage_2 120;
	voltage_N 0;
}

object transformer:203  {
	phases "AS";
	from Node_24592001310;
	to Node_24592001310_RA_M;
	configuration transformer_configuration:55;
}

object triplex_meter:204 {
	name Node_24592001310_RA_M;
	phases "AS";
	nominal_voltage 120;
	voltage_1 120;
	voltage_2 120;
	voltage_N 0;
}

object triplex_node:205 {
	name Node_24592001310_RA_TX;
	parent Node_24592001310_RA_M;
	phases AS;
	nominal_voltage 120;
	latitude 48N21'45.679";
	longitude 121W57'49.589";
	power_1 2.54231877027363+2.829444005655j;
	voltage_1 120;
	voltage_2 120;
	voltage_N 0;
}

object transformer:206  {
	phases "AS";
	from Node_2459195780;
	to Node_2459195780_RA_M;
	configuration transformer_configuration:57;
}

object triplex_meter:207 {
	name Node_2459195780_RA_M;
	phases "AS";
	nominal_voltage 120;
	voltage_1 120;
	voltage_2 120;
	voltage_N 0;
}

object triplex_node:208 {
	name Node_2459195780_RA_TX;
	parent Node_2459195780_RA_M;
	phases AS;
	nominal_voltage 120;
	latitude 48N21'45.833";
	longitude 121W57'43.823";
	power_1 2.80023516725791+3.11648904970696j;
	voltage_1 120;
	voltage_2 120;
	voltage_N 0;
}

object transformer:209  {
	phases "AS";
	from Node_24586127453;
	to Node_24586127453_RA_M;
	configuration transformer_configuration:57;
}

object triplex_meter:210 {
	name Node_24586127453_RA_M;
	phases "AS";
	nominal_voltage 120;
	voltage_1 120;
	voltage_2 120;
	voltage_N 0;
}

object triplex_node:211 {
	name Node_24586127453_RA_TX;
	parent Node_24586127453_RA_M;
	phases AS;
	nominal_voltage 120;
	latitude 48N21'45.895";
	longitude 121W57'39.719";
	power_1 4.20035275088687+4.67473357456044j;
	voltage_1 120;
	voltage_2 120;
	voltage_N 0;
}

object transformer:212  {
	phases "AS";
	from Node_2459196233;
	to Node_2459196233_RA_M;
	configuration transformer_configuration:61;
}

object triplex_meter:213 {
	name Node_2459196233_RA_M;
	phases "AS";
	nominal_voltage 120;
	voltage_1 120;
	voltage_2 120;
	voltage_N 0;
}

object triplex_node:214 {
	name Node_2459196233_RA_TX;
	parent Node_2459196233_RA_M;
	phases AS;
	nominal_voltage 120;
	latitude 48N21'45.693";
	longitude 121W57'55.396";
	power_1 1.65803398061324+1.84528956890544j;
	voltage_1 120;
	voltage_2 120;
	voltage_N 0;
}

object transformer:215  {
	phases "AS";
	from Node_2459196112;
	to Node_2459196112_RA_M;
	configuration transformer_configuration:62;
}

object triplex_meter:216 {
	name Node_2459196112_RA_M;
	phases "AS";
	nominal_voltage 120;
	voltage_1 120;
	voltage_2 120;
	voltage_N 0;
}

object triplex_node:217 {
	name Node_2459196112_RA_TX;
	parent Node_2459196112_RA_M;
	phases AS;
	nominal_voltage 120;
	latitude 48N21'45.665";
	longitude 121W57'52.688";
	power_1 7.12954611663692+7.93474514629337j;
	voltage_1 120;
	voltage_2 120;
	voltage_N 0;
}

object transformer:218  {
	phases "AS";
	from Node_24592590064;
	to Node_24592590064_RA_M;
	configuration transformer_configuration:55;
}

object triplex_meter:219 {
	name Node_24592590064_RA_M;
	phases "AS";
	nominal_voltage 120;
	voltage_1 120;
	voltage_2 120;
	voltage_N 0;
}

object triplex_node:220 {
	name Node_24592590064_RA_TX;
	parent Node_24592590064_RA_M;
	phases AS;
	nominal_voltage 120;
	latitude 48N21'45.663";
	longitude 121W58'3.680";
	power_1 2.59758656962741+2.89095365795185j;
	voltage_1 120;
	voltage_2 120;
	voltage_N 0;
}

object transformer:221  {
	phases "AS";
	from Node_24592593566;
	to Node_24592593566_RA_M;
	configuration transformer_configuration:55;
}

object triplex_meter:222 {
	name Node_24592593566_RA_M;
	phases "AS";
	nominal_voltage 120;
	voltage_1 120;
	voltage_2 120;
	voltage_N 0;
}

object triplex_node:223 {
	name Node_24592593566_RA_TX;
	parent Node_24592593566_RA_M;
	phases AS;
	nominal_voltage 120;
	latitude 48N21'45.672";
	longitude 121W58'1.883";
	power_1 2.41336057178149+2.68592148362902j;
	voltage_1 120;
	voltage_2 120;
	voltage_N 0;
}

object transformer:224  {
	phases "AS";
	from Node_24592595067;
	to Node_24592595067_RA_M;
	configuration transformer_configuration:55;
}

object triplex_meter:225 {
	name Node_24592595067_RA_M;
	phases "AS";
	nominal_voltage 120;
	voltage_1 120;
	voltage_2 120;
	voltage_N 0;
}

object triplex_node:226 {
	name Node_24592595067_RA_TX;
	parent Node_24592595067_RA_M;
	phases AS;
	nominal_voltage 120;
	latitude 48N21'45.744";
	longitude 121W57'58.944";
	power_1 1.98964077673589+2.21434748268652j;
	voltage_1 120;
	voltage_2 120;
	voltage_N 0;
}

object transformer:227  {
	phases "AS";
	from Node_24592004411;
	to Node_24592004411_RA_M;
	configuration transformer_configuration:51;
}

object triplex_meter:228 {
	name Node_24592004411_RA_M;
	phases "AS";
	nominal_voltage 120;
	voltage_1 120;
	voltage_2 120;
	voltage_N 0;
}

object triplex_node:229 {
	name Node_24592004411_RA_TX;
	parent Node_24592004411_RA_M;
	phases AS;
	nominal_voltage 120;
	latitude 48N21'41.743";
	longitude 121W57'48.105";
	power_1 3.64767475734912+4.05963705159196j;
	voltage_1 120;
	voltage_2 120;
	voltage_N 0;
}

object transformer:230  {
	phases "BS";
	from Node_2458583611;
	to Node_2458583611_RB_M;
	configuration transformer_configuration:69;
}

object triplex_meter:231 {
	name Node_2458583611_RB_M;
	phases "BS";
	nominal_voltage 120;
	voltage_1 -60.000-103.923j;
	voltage_2 -60.000-103.923j;
	voltage_N 0;
}

object triplex_node:232 {
	name Node_2458583611_RB_TX;
	parent Node_2458583611_RB_M;
	phases BS;
	nominal_voltage 120;
	latitude 48N21'46.869";
	longitude 121W57'18.033";
	power_1 25.0917640659076+9.79552344710155j;
	voltage_1 -60.000-103.923j;
	voltage_2 -60.000-103.923j;
	voltage_N 0;
}

object transformer:233  {
	phases "AS";
	from Node_24592586762;
	to Node_24592586762_RA_M;
	configuration transformer_configuration:57;
}

object triplex_meter:234 {
	name Node_24592586762_RA_M;
	phases "AS";
	nominal_voltage 120;
	voltage_1 120;
	voltage_2 120;
	voltage_N 0;
}

object triplex_node:235 {
	name Node_24592586762_RA_TX;
	parent Node_24592586762_RA_M;
	phases AS;
	nominal_voltage 120;
	latitude 48N21'45.565";
	longitude 121W58'10.355";
	power_1 4.58722734636329+5.10530114063837j;
	voltage_1 120;
	voltage_2 120;
	voltage_N 0;
}

object transformer:236  {
	phases "AS";
	from Node_24592587863;
	to Node_24592587863_RA_M;
	configuration transformer_configuration:58;
}

object triplex_meter:237 {
	name Node_24592587863_RA_M;
	phases "AS";
	nominal_voltage 120;
	voltage_1 120;
	voltage_2 120;
	voltage_N 0;
}

object triplex_node:238 {
	name Node_24592587863_RA_TX;
	parent Node_24592587863_RA_M;
	phases AS;
	nominal_voltage 120;
	latitude 48N21'45.672";
	longitude 121W58'6.248";
	power_1 5.04779234097808+5.61788157644544j;
	voltage_1 120;
	voltage_2 120;
	voltage_N 0;
}

object transformer:239  {
	phases "AS";
	from Node_24592629369;
	to Node_24592629369_RA_M;
	configuration transformer_configuration:55;
}

object triplex_meter:240 {
	name Node_24592629369_RA_M;
	phases "AS";
	nominal_voltage 120;
	voltage_1 120;
	voltage_2 120;
	voltage_N 0;
}

object triplex_node:241 {
	name Node_24592629369_RA_TX;
	parent Node_24592629369_RA_M;
	phases AS;
	nominal_voltage 120;
	latitude 48N21'45.652";
	longitude 121W58'18.002";
	power_1 2.33967017264312+2.60390861389989j;
	voltage_1 120;
	voltage_2 120;
	voltage_N 0;
}

object transformer:242  {
	phases "AS";
	from Node_24592628268;
	to Node_24592628268_RA_M;
	configuration transformer_configuration:57;
}

object triplex_meter:243 {
	name Node_24592628268_RA_M;
	phases "AS";
	nominal_voltage 120;
	voltage_1 120;
	voltage_2 120;
	voltage_N 0;
}

object triplex_node:244 {
	name Node_24592628268_RA_TX;
	parent Node_24592628268_RA_M;
	phases AS;
	nominal_voltage 120;
	latitude 48N21'45.495";
	longitude 121W58'15.034";
	power_1 3.7029425567029+4.12114670388881j;
	voltage_1 120;
	voltage_2 120;
	voltage_N 0;
}

object transformer:245  {
	phases "AS";
	from Node_24585943218;
	to Node_24585943218_RA_M;
	configuration transformer_configuration:61;
}

object triplex_meter:246 {
	name Node_24585943218_RA_M;
	phases "AS";
	nominal_voltage 120;
	voltage_1 120;
	voltage_2 120;
	voltage_N 0;
}

object triplex_node:247 {
	name Node_24585943218_RA_TX;
	parent Node_24585943218_RA_M;
	phases AS;
	nominal_voltage 120;
	latitude 48N21'47.241";
	longitude 121W57'9.791";
	power_1 1.43696278319814+1.59925095971804j;
	voltage_1 120;
	voltage_2 120;
	voltage_N 0;
}

object transformer:248  {
	phases "AS";
	from Node_24585924715;
	to Node_24585924715_RA_M;
	configuration transformer_configuration:55;
}

object triplex_meter:249 {
	name Node_24585924715_RA_M;
	phases "AS";
	nominal_voltage 120;
	voltage_1 120;
	voltage_2 120;
	voltage_N 0;
}

object triplex_node:250 {
	name Node_24585924715_RA_TX;
	parent Node_24585924715_RA_M;
	phases AS;
	nominal_voltage 120;
	latitude 48N21'47.270";
	longitude 121W57'23.387";
	power_1 2.46862837113526+2.74743113592587j;
	voltage_1 120;
	voltage_2 120;
	voltage_N 0;
}

object transformer:251  {
	phases "AS";
	from Node_24592031312;
	to Node_24592031312_RA_M;
	configuration transformer_configuration:61;
}

object triplex_meter:252 {
	name Node_24592031312_RA_M;
	phases "AS";
	nominal_voltage 120;
	voltage_1 120;
	voltage_2 120;
	voltage_N 0;
}

object triplex_node:253 {
	name Node_24592031312_RA_TX;
	parent Node_24592031312_RA_M;
	phases AS;
	nominal_voltage 120;
	latitude 48N21'48.424";
	longitude 121W57'39.641";
	power_1 1.62118878104405+1.80428313404087j;
	voltage_1 120;
	voltage_2 120;
	voltage_N 0;
}

object transformer:254  {
	phases "AS";
	from Node_24586130254;
	to Node_24586130254_RA_M;
	configuration transformer_configuration:63;
}

object triplex_meter:255 {
	name Node_24586130254_RA_M;
	phases "AS";
	nominal_voltage 120;
	voltage_1 120;