// $Id: R1-12.47-3.glm 1132 2008-11-18 22:36:10Z dchassin $ 
//*********************************************

clock { 
	 timezone PST+8PDT;
	 timestamp '2000-01-01 0:00:00';
}

//*********************************************
// modules
module powerflow;


object fuse:1162 {
	name R1-12-47-3_fuse_1;
	phases "ABCN";
	from node:685;
	to node:686;
	current_limit 3000.0;
	status CLOSED;
}

object fuse:1163 {
	name R1-12-47-3_fuse_2;
	phases "ABCN";
	from node:686;
	to node:687;
	current_limit 3000.0;
	status CLOSED;
}

object fuse:1165 {
	name R1-12-47-3_fuse_3;
	phases "AN";
	from node:689;
	to node:691;
	current_limit 3000.0;
	status CLOSED;
}

object fuse:1168 {
	name R1-12-47-3_fuse_4;
	phases "AN";
	from node:696;
	to node:697;
	current_limit 3000.0;
	status CLOSED;
}

object fuse:1170 {
	name R1-12-47-3_fuse_5;
	phases "AN";
	from node:700;
	to node:702;
	current_limit 3000.0;
	status CLOSED;
}

object fuse:1176 {
	name R1-12-47-3_fuse_6;
	phases "CN";
	from node:713;
	to node:715;
	current_limit 3000.0;
	status CLOSED;
}

object fuse:1179 {
	name R1-12-47-3_fuse_7;
	phases "BN";
	from node:718;
	to node:722;
	current_limit 3000.0;
	status CLOSED;
}

object fuse:1182 {
	name R1-12-47-3_fuse_8;
	phases "AN";
	from node:726;
	to node:727;
	current_limit 3000.0;
	status CLOSED;
}

object fuse:1186 {
	name R1-12-47-3_fuse_9;
	phases "BCN";
	from node:733;
	to node:734;
	current_limit 3000.0;
	status CLOSED;
}

object fuse:1191 {
	name R1-12-47-3_fuse_10;
	phases "BN";
	from node:739;
	to node:742;
	current_limit 3000.0;
	status CLOSED;
}

object fuse:1192 {
	name R1-12-47-3_fuse_11;
	phases "CN";
	from node:739;
	to node:743;
	current_limit 3000.0;
	status CLOSED;
}

object fuse:1194 {
	name R1-12-47-3_fuse_12;
	phases "CN";
	from node:744;
	to node:745;
	current_limit 3000.0;
	status CLOSED;
}

object fuse:1197 {
	name R1-12-47-3_fuse_13;
	phases "CN";
	from node:747;
	to node:748;
	current_limit 3000.0;
	status CLOSED;
}

object fuse:1200 {
	name R1-12-47-3_fuse_14;
	phases "CN";
	from node:749;
	to node:751;
	current_limit 3000.0;
	status CLOSED;
}

object fuse:1201 {
	name R1-12-47-3_fuse_15;
	phases "CN";
	from node:750;
	to node:752;
	current_limit 3000.0;
	status CLOSED;
}

object fuse:1203 {
	name R1-12-47-3_fuse_16;
	phases "CN";
	from node:753;
	to node:754;
	current_limit 3000.0;
	status CLOSED;
}

object fuse:1207 {
	name R1-12-47-3_fuse_17;
	phases "CN";
	from node:757;
	to node:758;
	current_limit 3000.0;
	status CLOSED;
}

object fuse:1209 {
	name R1-12-47-3_fuse_18;
	phases "CN";
	from node:759;
	to node:760;
	current_limit 3000.0;
	status CLOSED;
}

object fuse:1210 {
	name R1-12-47-3_fuse_19;
	phases "CN";
	from node:759;
	to node:761;
	current_limit 3000.0;
	status CLOSED;
}

object fuse:1216 {
	name R1-12-47-3_fuse_20;
	phases "BN";
	from node:765;
	to node:766;
	current_limit 3000.0;
	status CLOSED;
}

object fuse:1220 {
	name R1-12-47-3_fuse_21;
	phases "BN";
	from node:770;
	to node:771;
	current_limit 3000.0;
	status CLOSED;
}

object fuse:1226 {
	name R1-12-47-3_fuse_22;
	phases "BN";
	from node:778;
	to node:780;
	current_limit 3000.0;
	status CLOSED;
}

object fuse:1232 {
	name R1-12-47-3_fuse_23;
	phases "BN";
	from node:788;
	to node:790;
	current_limit 3000.0;
	status CLOSED;
}

object fuse:1234 {
	name R1-12-47-3_fuse_24;
	phases "BN";
	from node:793;
	to node:794;
	current_limit 3000.0;
	status CLOSED;
}

object fuse:1237 {
	name R1-12-47-3_fuse_25;
	phases "BN";
	from node:798;
	to node:799;
	current_limit 3000.0;
	status CLOSED;
}

object fuse:1240 {
	name R1-12-47-3_fuse_26;
	phases "BN";
	from node:802;
	to node:804;
	current_limit 3000.0;
	status CLOSED;
}

object fuse:1241 {
	name R1-12-47-3_fuse_27;
	phases "BN";
	from node:802;
	to node:806;
	current_limit 3000.0;
	status CLOSED;
}

object fuse:1243 {
	name R1-12-47-3_fuse_28;
	phases "BN";
	from node:807;
	to node:808;
	current_limit 3000.0;
	status CLOSED;
}

object fuse:1244 {
	name R1-12-47-3_fuse_29;
	phases "BN";
	from node:808;
	to node:809;
	current_limit 3000.0;
	status CLOSED;
}

object fuse:1248 {
	name R1-12-47-3_fuse_30;
	phases "BN";
	from node:814;
	to node:816;
	current_limit 3000.0;
	status CLOSED;
}

object fuse:1253 {
	name R1-12-47-3_fuse_31;
	phases "BN";
	from node:822;
	to node:826;
	current_limit 3000.0;
	status CLOSED;
}

object fuse:1254 {
	name R1-12-47-3_fuse_32;
	phases "BN";
	from node:808;
	to node:827;
	current_limit 3000.0;
	status CLOSED;
}

object fuse:1258 {
	name R1-12-47-3_fuse_33;
	phases "BN";
	from node:829;
	to node:622;
	current_limit 3000.0;
	status CLOSED;
}

object fuse:1260 {
	name R1-12-47-3_fuse_34;
	phases "BN";
	from node:835;
	to node:839;
	current_limit 3000.0;
	status CLOSED;
}

object fuse:1261 {
	name R1-12-47-3_fuse_35;
	phases "BN";
	from node:837;
	to node:840;
	current_limit 3000.0;
	status CLOSED;
}

object fuse:1263 {
	name R1-12-47-3_fuse_36;
	phases "BN";
	from node:833;
	to node:845;
	current_limit 3000.0;
	status CLOSED;
}

object fuse:1265 {
	name R1-12-47-3_fuse_37;
	phases "BN";
	from node:622;
	to node:670;
	current_limit 3000.0;
	status CLOSED;
}

object fuse:1267 {
	name R1-12-47-3_fuse_38;
	phases "BN";
	from node:848;
	to node:851;
	current_limit 3000.0;
	status CLOSED;
}

object fuse:1269 {
	name R1-12-47-3_fuse_39;
	phases "BN";
	from node:853;
	to node:854;
	current_limit 3000.0;
	status CLOSED;
}

object fuse:1270 {
	name R1-12-47-3_fuse_40;
	phases "ABCN";
	from node:765;
	to node:857;
	current_limit 3000.0;
	status CLOSED;
}

object fuse:1272 {
	name R1-12-47-3_fuse_41;
	phases "AN";
	from node:858;
	to node:859;
	current_limit 3000.0;
	status CLOSED;
}

object fuse:1274 {
	name R1-12-47-3_fuse_42;
	phases "AN";
	from node:862;
	to node:863;
	current_limit 3000.0;
	status CLOSED;
}

object fuse:1276 {
	name R1-12-47-3_fuse_43;
	phases "BN";
	from node:865;
	to node:618;
	current_limit 3000.0;
	status CLOSED;
}

object fuse:1278 {
	name R1-12-47-3_fuse_44;
	phases "ABN";
	from node:870;
	to node:871;
	current_limit 3000.0;
	status CLOSED;
}

object fuse:1282 {
	name R1-12-47-3_fuse_45;
	phases "BN";
	from node:879;
	to node:880;
	current_limit 3000.0;
	status CLOSED;
}

object fuse:1287 {
	name R1-12-47-3_fuse_46;
	phases "AN";
	from node:892;
	to node:890;
	current_limit 3000.0;
	status CLOSED;
}

object fuse:1294 {
	name R1-12-47-3_fuse_47;
	phases "AN";
	from node:898;
	to node:901;
	current_limit 3000.0;
	status CLOSED;
}

object fuse:1299 {
	name R1-12-47-3_fuse_48;
	phases "AN";
	from node:908;
	to node:910;
	current_limit 3000.0;
	status CLOSED;
}

object fuse:1300 {
	name R1-12-47-3_fuse_49;
	phases "AN";
	from node:887;
	to node:912;
	current_limit 3000.0;
	status CLOSED;
}

object fuse:1301 {
	name R1-12-47-3_fuse_50;
	phases "AN";
	from node:912;
	to node:914;
	current_limit 3000.0;
	status CLOSED;
}

object fuse:1304 {
	name R1-12-47-3_fuse_51;
	phases "AN";
	from node:917;
	to node:920;
	current_limit 3000.0;
	status CLOSED;
}

object fuse:1308 {
	name R1-12-47-3_fuse_52;
	phases "AN";
	from node:925;
	to node:633;
	current_limit 3000.0;
	status CLOSED;
}

object fuse:1309 {
	name R1-12-47-3_fuse_53;
	phases "AN";
	from node:925;
	to node:929;
	current_limit 3000.0;
	status CLOSED;
}

object fuse:1323 {
	name R1-12-47-3_fuse_54;
	phases "CN";
	from node:870;
	to node:954;
	current_limit 3000.0;
	status CLOSED;
}

object fuse:1324 {
	name R1-12-47-3_fuse_55;
	phases "CN";
	from node:954;
	to node:955;
	current_limit 3000.0;
	status CLOSED;
}

object fuse:1327 {
	name R1-12-47-3_fuse_56;
	phases "CN";
	from node:956;
	to node:958;
	current_limit 3000.0;
	status CLOSED;
}

object fuse:1344 {
	name R1-12-47-3_fuse_57;
	phases "BN";
	from node:976;
	to node:629;
	current_limit 3000.0;
	status CLOSED;
}

object fuse:1346 {
	name R1-12-47-3_fuse_58;
	phases "CN";
	from node:977;
	to node:978;
	current_limit 3000.0;
	status CLOSED;
}

object fuse:1348 {
	name R1-12-47-3_fuse_59;
	phases "CN";
	from node:979;
	to node:980;
	current_limit 3000.0;
	status CLOSED;
}

object fuse:1350 {
	name R1-12-47-3_fuse_60;
	phases "CN";
	from node:981;
	to node:982;
	current_limit 3000.0;
	status CLOSED;
}

object fuse:1369 {
	name R1-12-47-3_fuse_61;
	phases "BN";
	from node:1000;
	to node:1002;
	current_limit 3000.0;
	status CLOSED;
}

object fuse:1371 {
	name R1-12-47-3_fuse_62;
	phases "CN";
	from node:1003;
	to node:1004;
	current_limit 3000.0;
	status CLOSED;
}

object fuse:1376 {
	name R1-12-47-3_fuse_63;
	phases "BCN";
	from node:1008;
	to node:1010;
	current_limit 3000.0;
	status CLOSED;
}

object fuse:1378 {
	name R1-12-47-3_fuse_64;
	phases "CN";
	from node:1011;
	to node:677;
	current_limit 3000.0;
	status CLOSED;
}

object fuse:1379 {
	name R1-12-47-3_fuse_65;
	phases "BCN";
	from node:1011;
	to node:663;
	current_limit 3000.0;
	status CLOSED;
}

object fuse:1384 {
	name R1-12-47-3_fuse_66;
	phases "BN";
	from node:1018;
	to node:1019;
	current_limit 3000.0;
	status CLOSED;
}

object fuse:1394 {
	name R1-12-47-3_fuse_67;
	phases "BN";
	from node:1034;
	to node:1036;
	current_limit 3000.0;
	status CLOSED;
}

object fuse:1397 {
	name R1-12-47-3_fuse_68;
	phases "BN";
	from node:1038;
	to node:1040;
	current_limit 3000.0;
	status CLOSED;
}

object fuse:1400 {
	name R1-12-47-3_fuse_69;
	phases "CN";
	from node:1042;
	to node:1043;
	current_limit 3000.0;
	status CLOSED;
}

object fuse:1401 {
	name R1-12-47-3_fuse_70;
	phases "CN";
	from node:1042;
	to node:1044;
	current_limit 3000.0;
	status CLOSED;
}

object fuse:1404 {
	name R1-12-47-3_fuse_71;
	phases "CN";
	from node:1046;
	to node:1047;
	current_limit 3000.0;
	status CLOSED;
}

object fuse:1413 {
	name R1-12-47-3_fuse_72;
	phases "CN";
	from node:1055;
	to node:1056;
	current_limit 3000.0;
	status CLOSED;
}

object fuse:1416 {
	name R1-12-47-3_fuse_73;
	phases "BN";
	from node:1058;
	to node:1059;
	current_limit 3000.0;
	status CLOSED;
}

object fuse:1421 {
	name R1-12-47-3_fuse_74;
	phases "BN";
	from node:1066;
	to node:648;
	current_limit 3000.0;
	status CLOSED;
}

object fuse:1427 {
	name R1-12-47-3_fuse_75;
	phases "CN";
	from node:1075;
	to node:1076;
	current_limit 3000.0;
	status CLOSED;
}

object fuse:1429 {
	name R1-12-47-3_fuse_76;
	phases "CN";
	from node:1077;
	to node:1078;
	current_limit 3000.0;
	status CLOSED;
}

object fuse:1434 {
	name R1-12-47-3_fuse_77;
	phases "BN";
	from node:1082;
	to node:1083;
	current_limit 3000.0;
	status CLOSED;
}

object fuse:1436 {
	name R1-12-47-3_fuse_78;
	phases "BN";
	from node:1083;
	to node:1087;
	current_limit 3000.0;
	status CLOSED;
}

object fuse:1437 {
	name R1-12-47-3_fuse_79;
	phases "BN";
	from node:1087;
	to node:1089;
	current_limit 3000.0;
	status CLOSED;
}

object fuse:1465 {
	name R1-12-47-3_fuse_80;
	phases "BN";
	from node:868;
	to node:612;
	current_limit 3000.0;
	status CLOSED;
}

object fuse:1474 {
	name R1-12-47-3_fuse_81;
	phases "BN";
	from node:628;
	to node:679;
	current_limit 3000.0;
	status CLOSED;
}

object fuse:1476 {
	name R1-12-47-3_fuse_82;
	phases "BN";
	from node:847;
	to node:630;
	current_limit 3000.0;
	status CLOSED;
}

object fuse:1479 {
	name R1-12-47-3_fuse_83;
	phases "BN";
	from node:663;
	to node:665;
	current_limit 3000.0;
	status CLOSED;
}

object fuse:1493 {
	name R1-12-47-3_fuse_84;
	phases "AN";
	from node:645;
	to node:644;
	current_limit 3000.0;
	status CLOSED;
}


object line_configuration:1119 {
	conductor_A underground_line_conductor:49;
	conductor_B underground_line_conductor:49;
	conductor_C underground_line_conductor:49;
	conductor_N underground_line_conductor:49;
	spacing line_spacing:1118;
}

object line_configuration:1121 {
	conductor_A overhead_line_conductor:24;
	conductor_B overhead_line_conductor:24;
	conductor_C overhead_line_conductor:24;
	conductor_N overhead_line_conductor:24;
	spacing line_spacing:1120;
}

object line_configuration:1122 {
	conductor_A overhead_line_conductor:11;
	conductor_B overhead_line_conductor:11;
	conductor_C overhead_line_conductor:11;
	conductor_N overhead_line_conductor:11;
	spacing line_spacing:1120;
}

object line_configuration:1123 {
	conductor_A underground_line_conductor:43;
	conductor_B underground_line_conductor:43;
	conductor_C underground_line_conductor:43;
	conductor_N underground_line_conductor:43;
	spacing line_spacing:1118;
}

object line_configuration:1125 {
	conductor_A overhead_line_conductor:11;
	conductor_N overhead_line_conductor:11;
	spacing line_spacing:1124;
}

object line_configuration:1127 {
	conductor_A underground_line_conductor:43;
	conductor_N underground_line_conductor:43;
	spacing line_spacing:1126;
}

object line_configuration:1128 {
	conductor_A overhead_line_conductor:24;
	conductor_B overhead_line_conductor:24;
	conductor_C overhead_line_conductor:24;
	conductor_N overhead_line_conductor:24;
	spacing line_spacing:1120;
}

object line_configuration:1130 {
	conductor_C overhead_line_conductor:11;
	conductor_N overhead_line_conductor:11;
	spacing line_spacing:1129;
}

object line_configuration:1131 {
	conductor_C overhead_line_conductor:8;
	conductor_N overhead_line_conductor:8;
	spacing line_spacing:1129;
}

object line_configuration:1133 {
	conductor_B overhead_line_conductor:8;
	conductor_N overhead_line_conductor:8;
	spacing line_spacing:1132;
}

object line_configuration:1134 {
	conductor_B overhead_line_conductor:11;
	conductor_N overhead_line_conductor:11;
	spacing line_spacing:1132;
}

object line_configuration:1135 {
	conductor_A overhead_line_conductor:15;
	conductor_N overhead_line_conductor:15;
	spacing line_spacing:1124;
}

object line_configuration:1137 {
	conductor_B overhead_line_conductor:8;
	conductor_C overhead_line_conductor:8;
	conductor_N overhead_line_conductor:8;
	spacing line_spacing:1136;
}

object line_configuration:1138 {
	conductor_C overhead_line_conductor:11;
	conductor_N overhead_line_conductor:11;
	spacing line_spacing:1129;
}

object line_configuration:1139 {
	conductor_B overhead_line_conductor:11;
	conductor_C overhead_line_conductor:11;
	conductor_N overhead_line_conductor:11;
	spacing line_spacing:1136;
}

object line_configuration:1141 {
	conductor_B underground_line_conductor:43;
	conductor_N underground_line_conductor:43;
	spacing line_spacing:1140;
}

object line_configuration:1143 {
	conductor_C underground_line_conductor:43;
	conductor_N underground_line_conductor:43;
	spacing line_spacing:1142;
}

object line_configuration:1144 {
	conductor_C overhead_line_conductor:13;
	conductor_N overhead_line_conductor:13;
	spacing line_spacing:1129;
}

object line_configuration:1145 {
	conductor_A overhead_line_conductor:24;
	conductor_B overhead_line_conductor:24;
	conductor_C overhead_line_conductor:24;
	conductor_N overhead_line_conductor:24;
	spacing line_spacing:1120;
}

object line_configuration:1146 {
	conductor_A overhead_line_conductor:18;
	conductor_B overhead_line_conductor:18;
	conductor_C overhead_line_conductor:18;
	conductor_N overhead_line_conductor:18;
	spacing line_spacing:1120;
}

object line_configuration:1147 {
	conductor_B overhead_line_conductor:13;
	conductor_N overhead_line_conductor:13;
	spacing line_spacing:1132;
}

object line_configuration:1148 {
	conductor_B underground_line_conductor:43;
	conductor_N underground_line_conductor:43;
	spacing line_spacing:1132;
}

object line_configuration:1149 {
	conductor_A overhead_line_conductor:18;
	conductor_B overhead_line_conductor:18;
	conductor_C overhead_line_conductor:18;
	conductor_N overhead_line_conductor:18;
	spacing line_spacing:1120;
}

object line_configuration:1150 {
	conductor_A overhead_line_conductor:8;
	conductor_N overhead_line_conductor:8;
	spacing line_spacing:1124;
}

object line_configuration:1152 {
	conductor_A overhead_line_conductor:8;
	conductor_B overhead_line_conductor:8;
	conductor_N overhead_line_conductor:8;
	spacing line_spacing:1151;
}

object line_configuration:1153 {
	conductor_A overhead_line_conductor:15;
	conductor_B overhead_line_conductor:15;
	conductor_N overhead_line_conductor:15;
	spacing line_spacing:1151;
}

object line_configuration:1154 {
	conductor_A overhead_line_conductor:8;
	conductor_B overhead_line_conductor:8;
	conductor_N overhead_line_conductor:8;
	spacing line_spacing:1151;
}

object line_configuration:1156 {
	conductor_B underground_line_conductor:43;
	conductor_C underground_line_conductor:43;
	conductor_N underground_line_conductor:43;
	spacing line_spacing:1155;
}

object line_configuration:1157 {
	conductor_A underground_line_conductor:43;
	conductor_N underground_line_conductor:43;
	spacing line_spacing:1124;
}


object line_spacing:1118 {
	distance_AB 0.0 in;
	distance_BC 0.0 in;
	distance_AC 0.0 in;
	distance_AN 0.0 in;
	distance_BN 0.0 in;
	distance_CN 0.0 in;
}

object line_spacing:1120 {
	distance_AB 57.6 in;
	distance_BC 57.6 in;
	distance_AC 57.6 in;
	distance_AN 84.0 in;
	distance_BN 84.0 in;
	distance_CN 84.0 in;
}

object line_spacing:1124 {
	distance_AN 84.0 in;
}

object line_spacing:1126 {
	distance_AN 0.0 in;
}

object line_spacing:1129 {
	distance_CN 84.0 in;
}

object line_spacing:1132 {
	distance_BN 84.0 in;
}

object line_spacing:1136 {
	distance_BC 57.6 in;
	distance_BN 84.0 in;
	distance_CN 84.0 in;
}

object line_spacing:1140 {
	distance_BN 0.0 in;
}

object line_spacing:1142 {
	distance_CN 0.0 in;
}

object line_spacing:1151 {
	distance_AB 57.6 in;
	distance_AN 84.0 in;
	distance_BN 84.0 in;
}

object line_spacing:1155 {
	distance_BC 0.0 in;
	distance_BN 0.0 in;
	distance_CN 0.0 in;
}


object load {
	name R1-12-47-3_load_1;
	parent R1-12-47-3_meter_1;
	phases "ABCN";
	nominal_voltage 7199.558;
	voltage_A 7199.558+0.0j;
	voltage_B -3599.779-6235.000j;
	voltage_C -3599.779+6235.000j;
	constant_power_A 82333.000+0.000j;
	constant_power_B 82333.000+0.000j;
	constant_power_C 82334.000+0.000j;
	load_class "C";
}

object load {
	name R1-12-47-3_load_2;
	parent R1-12-47-3_meter_2;
	phases "ABCN";
	nominal_voltage 7199.558;
	voltage_A 7199.558+0.0j;
	voltage_B -3599.779-6235.000j;
	voltage_C -3599.779+6235.000j;
	constant_power_A 15564.472+222.425j;
	constant_power_B 11118.266+338.502j;
	constant_power_C 25285.783+312.139j;
	load_class "C";
}

object load {
	name R1-12-47-3_load_3;
	parent R1-12-47-3_meter_3;
	phases "ABCN";
	nominal_voltage 7199.558;
	voltage_A 7199.558+0.0j;
	voltage_B -3599.779-6235.000j;
	voltage_C -3599.779+6235.000j;
	constant_power_A 4669.342+66.728j;
	constant_power_B 3335.480+101.551j;
	constant_power_C 0.000+0.000j;
	load_class "C";
}


object meter:109 {
	name R1-12-47-3_meter_1;
	phases "ABCN";
	nominal_voltage 7199.558;
	voltage_A 7199.558+0.0j;
	voltage_B -3599.779-6235.000j;
	voltage_C -3599.779+6235.000j;
}

object meter:111 {
	name R1-12-47-3_meter_2;
	phases "ABCN";
	nominal_voltage 7199.558;
	voltage_A 7199.558+0.0j;
	voltage_B -3599.779-6235.000j;
	voltage_C -3599.779+6235.000j;
}

object meter:167 {
	name R1-12-47-3_meter_3;
	phases "ABCN";
	nominal_voltage 7199.558;
	voltage_A 7199.558+0.0j;
	voltage_B -3599.779-6235.000j;
	voltage_C -3599.779+6235.000j;
}

// Meter at feeder
object meter:636 {
	name R1-12-47-3_meter_4;
	phases "ABCN";
	nominal_voltage 7199.558;
	voltage_A 7199.558+0.0j;
	voltage_B -3599.779-6235.000j;
	voltage_C -3599.779+6235.000j;
}


object node:612 {
	name R1-12-47-3_node_1;
	phases "BN";
	nominal_voltage 7199.558;
	voltage_B -3599.779-6235.000j;
}

object node:614 {
	name R1-12-47-3_node_2;
	phases "CN";
	nominal_voltage 7199.558;
	voltage_C -3599.779+6235.000j;
}

object node:615 {
	name R1-12-47-3_node_3;
	phases "BN";
	nominal_voltage 7199.558;
	voltage_B -3599.779-6235.000j;
}

object node:618 {
	name R1-12-47-3_node_4;
	phases "BN";
	nominal_voltage 7199.558;
	voltage_B -3599.779-6235.000j;
}

object node:619 {
	name R1-12-47-3_node_5;
	phases "AN";
	nominal_voltage 7199.558;
	voltage_A 7199.558+0.0j;
}

object node:621 {
	name R1-12-47-3_node_6;
	phases "BN";
	nominal_voltage 7199.558;
	voltage_B -3599.779-6235.000j;
}

object node:622 {
	name R1-12-47-3_node_7;
	phases "BN";
	nominal_voltage 7199.558;
	voltage_B -3599.779-6235.000j;
}

object node:625 {
	name R1-12-47-3_node_8;
	phases "ABCN";
	nominal_voltage 7199.558;
	voltage_A 7199.558+0.0j;
	voltage_B -3599.779-6235.000j;
	voltage_C -3599.779+6235.000j;
}

object node:628 {
	name R1-12-47-3_node_9;
	phases "BN";
	nominal_voltage 7199.558;
	voltage_B -3599.779-6235.000j;
}

object node:627 {
	name R1-12-47-3_node_10;
	phases "BN";
	nominal_voltage 7199.558;
	voltage_B -3599.779-6235.000j;
}

object node:629 {
	name R1-12-47-3_node_11;
	phases "BN";
	nominal_voltage 7199.558;
	voltage_B -3599.779-6235.000j;
}

object node:630 {
	name R1-12-47-3_node_12;
	phases "BN";
	nominal_voltage 7199.558;
	voltage_B -3599.779-6235.000j;
}

object node:631 {
	name R1-12-47-3_node_13;
	phases "BN";
	nominal_voltage 7199.558;
	voltage_B -3599.779-6235.000j;
}

object node:632 {
	name R1-12-47-3_node_14;
	phases "AN";
	nominal_voltage 7199.558;
	voltage_A 7199.558+0.0j;
}

object node:633 {
	name R1-12-47-3_node_15;
	phases "AN";
	nominal_voltage 7199.558;
	voltage_A 7199.558+0.0j;
}

object node:634 {
	name R1-12-47-3_node_16;
	phases "BN";
	nominal_voltage 7199.558;
	voltage_B -3599.779-6235.000j;
}

object node:638 {
	name R1-12-47-3_node_17;
	phases "AN";
	nominal_voltage 7199.558;
	voltage_A 7199.558+0.0j;
}

object node:639 {
	name R1-12-47-3_node_18;
	phases "AN";
	nominal_voltage 7199.558;
	voltage_A 7199.558+0.0j;
}

object node:640 {
	name R1-12-47-3_node_19;
	phases "AN";
	nominal_voltage 7199.558;
	voltage_A 7199.558+0.0j;
}

object node:641 {
	name R1-12-47-3_node_20;
	phases "AN";
	nominal_voltage 7199.558;
	voltage_A 7199.558+0.0j;
}

object node:644 {
	name R1-12-47-3_node_21;
	phases "AN";
	nominal_voltage 7199.558;
	voltage_A 7199.558+0.0j;
}

object node:645 {
	name R1-12-47-3_node_22;
	phases "AN";
	nominal_voltage 7199.558;
	voltage_A 7199.558+0.0j;
}

object node:648 {
	name R1-12-47-3_node_23;
	phases "BN";
	nominal_voltage 7199.558;
	voltage_B -3599.779-6235.000j;
}

object node:649 {
	name R1-12-47-3_node_24;
	phases "BN";
	nominal_voltage 7199.558;
	voltage_B -3599.779-6235.000j;
}

object node:651 {
	name R1-12-47-3_node_25;
	phases "BN";
	nominal_voltage 7199.558;
	voltage_B -3599.779-6235.000j;
}

object node:652 {
	name R1-12-47-3_node_26;
	phases "BN";
	nominal_voltage 7199.558;
	voltage_B -3599.779-6235.000j;
}

object node:653 {
	name R1-12-47-3_node_27;
	phases "AN";
	nominal_voltage 7199.558;
	voltage_A 7199.558+0.0j;
}

object node:655 {
	name R1-12-47-3_node_28;
	phases "AN";
	nominal_voltage 7199.558;
	voltage_A 7199.558+0.0j;
}

object node:656 {
	name R1-12-47-3_node_29;
	phases "BN";
	nominal_voltage 7199.558;
	voltage_B -3599.779-6235.000j;
}

object node:657 {
	name R1-12-47-3_node_30;
	phases "ABCN";
	nominal_voltage 7199.558;
	voltage_A 7199.558+0.0j;
	voltage_B -3599.779-6235.000j;
	voltage_C -3599.779+6235.000j;
}

object node:659 {
	name R1-12-47-3_node_31;
	phases "AN";
	nominal_voltage 7199.558;
	voltage_A 7199.558+0.0j;
}

object node:660 {
	name R1-12-47-3_node_32;
	phases "AN";
	nominal_voltage 7199.558;
	voltage_A 7199.558+0.0j;
}

object node:663 {
	name R1-12-47-3_node_33;
	phases "BCN";
	nominal_voltage 7199.558;
	voltage_B -3599.779-6235.000j;
	voltage_C -3599.779+6235.000j;
}

object node:665 {
	name R1-12-47-3_node_34;
	phases "BN";
	nominal_voltage 7199.558;
	voltage_B -3599.779-6235.000j;
}

object node:666 {
	name R1-12-47-3_node_35;
	phases "AN";
	nominal_voltage 7199.558;
	voltage_A 7199.558+0.0j;
}

object node:668 {
	name R1-12-47-3_node_36;
	phases "AN";
	nominal_voltage 7199.558;
	voltage_A 7199.558+0.0j;
}

object node:670 {
	name R1-12-47-3_node_37;
	phases "BN";
	nominal_voltage 7199.558;
	voltage_B -3599.779-6235.000j;
}

object node:672 {
	name R1-12-47-3_node_38;
	phases "BN";
	nominal_voltage 7199.558;
	voltage_B -3599.779-6235.000j;
}

object node:676 {
	name R1-12-47-3_node_39;
	phases "AN";
	nominal_voltage 7199.558;
	voltage_A 7199.558+0.0j;
}

object node:677 {
	name R1-12-47-3_node_40;
	phases "CN";
	nominal_voltage 7199.558;
	voltage_C -3599.779+6235.000j;
}

object node:678 {
	name R1-12-47-3_node_41;
	phases "CN";
	nominal_voltage 7199.558;
	voltage_C -3599.779+6235.000j;
}

object node:679 {
	name R1-12-47-3_node_42;
	phases "BN";
	nominal_voltage 7199.558;
	voltage_B -3599.779-6235.000j;
}

object node:681 {
	name R1-12-47-3_node_43;
	phases "BN";
	nominal_voltage 7199.558;
	voltage_B -3599.779-6235.000j;
}

object node:682 {
	name R1-12-47-3_node_44;
	phases "ABCN";
	nominal_voltage 7199.558;
	voltage_A 7199.558+0.0j;
	voltage_B -3599.779-6235.000j;
	voltage_C -3599.779+6235.000j;
}

object node:683 {
	name R1-12-47-3_node_45;
	phases "ABCN";
	nominal_voltage 7199.558;
	voltage_A 7199.558+0.0j;
	voltage_B -3599.779-6235.000j;
	voltage_C -3599.779+6235.000j;
}

object node:684 {
	name R1-12-47-3_node_46;
	phases "ABCN";
	nominal_voltage 7199.558;
	voltage_A 7199.558+0.0j;
	voltage_B -3599.779-6235.000j;
	voltage_C -3599.779+6235.000j;
}

object node:685 {
	name R1-12-47-3_node_47;
	phases "ABCN";
	nominal_voltage 7199.558;
	voltage_A 7199.558+0.0j;
	voltage_B -3599.779-6235.000j;
	voltage_C -3599.779+6235.000j;
}

object node:686 {
	name R1-12-47-3_node_48;
	phases "ABCN";
	nominal_voltage 7199.558;
	voltage_A 7199.558+0.0j;
	voltage_B -3599.779-6235.000j;
	voltage_C -3599.779+6235.000j;
}

object node:687 {
	name R1-12-47-3_node_49;
	phases "ABCN";
	nominal_voltage 7199.558;
	voltage_A 7199.558+0.0j;
	voltage_B -3599.779-6235.000j;
	voltage_C -3599.779+6235.000j;
}

object node:689 {
	name R1-12-47-3_node_50;
	phases "ABCN";
	nominal_voltage 7199.558;
	voltage_A 7199.558+0.0j;
	voltage_B -3599.779-6235.000j;
	voltage_C -3599.779+6235.000j;
}

object node:691 {
	name R1-12-47-3_node_51;
	phases "AN";
	nominal_voltage 7199.558;
	voltage_A 7199.558+0.0j;
}

object node:693 {
	name R1-12-47-3_node_52;
	phases "AN";
	nominal_voltage 7199.558;
	voltage_A 7199.558+0.0j;
}

object node:696 {
	name R1-12-47-3_node_53;
	phases "AN";
	nominal_voltage 7199.558;
	voltage_A 7199.558+0.0j;
}

object node:697 {
	name R1-12-47-3_node_54;
	phases "AN";
	nominal_voltage 7199.558;
	voltage_A 7199.558+0.0j;
}

object node:700 {
	name R1-12-47-3_node_55;
	phases "AN";
	nominal_voltage 7199.558;
	voltage_A 7199.558+0.0j;
}

object node:702 {
	name R1-12-47-3_node_56;
	phases "AN";
	nominal_voltage 7199.558;
	voltage_A 7199.558+0.0j;
}

object node:703 {
	name R1-12-47-3_node_57;
	phases "AN";
	nominal_voltage 7199.558;
	voltage_A 7199.558+0.0j;
}

object node:705 {
	name R1-12-47-3_node_58;
	phases "AN";
	nominal_voltage 7199.558;
	voltage_A 7199.558+0.0j;
}

object node:707 {
	name R1-12-47-3_node_59;
	phases "AN";
	nominal_voltage 7199.558;
	voltage_A 7199.558+0.0j;
}

object node:709 {
	name R1-12-47-3_node_60;
	phases "ABCN";
	nominal_voltage 7199.558;
	voltage_A 7199.558+0.0j;
	voltage_B -3599.779-6235.000j;
	voltage_C -3599.779+6235.000j;
}

object node:713 {
	name R1-12-47-3_node_61;
	phases "ABCN";
	nominal_voltage 7199.558;
	voltage_A 7199.558+0.0j;
	voltage_B -3599.779-6235.000j;
	voltage_C -3599.779+6235.000j;
}

object node:715 {
	name R1-12-47-3_node_62;
	phases "CN";
	nominal_voltage 7199.558;
	voltage_C -3599.779+6235.000j;
}

object node:716 {
	name R1-12-47-3_node_63;
	phases "CN";
	nominal_voltage 7199.558;
	voltage_C -3599.779+6235.000j;
}

object node:718 {
	name R1-12-47-3_node_64;
	phases "ABCN";
	nominal_voltage 7199.558;
	voltage_A 7199.558+0.0j;
	voltage_B -3599.779-6235.000j;
	voltage_C -3599.779+6235.000j;
}

object node:722 {
	name R1-12-47-3_node_65;
	phases "BN";
	nominal_voltage 7199.558;
	voltage_B -3599.779-6235.000j;
}

object node:723 {
	name R1-12-47-3_node_66;
	phases "BN";
	nominal_voltage 7199.558;
	voltage_B -3599.779-6235.000j;
}

object node:726 {
	name R1-12-47-3_node_67;
	phases "ABCN";
	nominal_voltage 7199.558;
	voltage_A 7199.558+0.0j;
	voltage_B -3599.779-6235.000j;
	voltage_C -3599.779+6235.000j;
}

object node:727 {
	name R1-12-47-3_node_68;
	phases "AN";
	nominal_voltage 7199.558;
	voltage_A 7199.558+0.0j;
}

object node:729 {
	name R1-12-47-3_node_69;
	phases "AN";
	nominal_voltage 7199.558;
	voltage_A 7199.558+0.0j;
}

object node:731 {
	name R1-12-47-3_node_70;
	phases "AN";
	nominal_voltage 7199.558;
	voltage_A 7199.558+0.0j;
}

object node:733 {
	name R1-12-47-3_node_71;
	phases "ABCN";
	nominal_voltage 7199.558;
	voltage_A 7199.558+0.0j;
	voltage_B -3599.779-6235.000j;
	voltage_C -3599.779+6235.000j;
}

object node:734 {