//*********************************************
// $Id: R1-12.47-4.glm 1132 2008-11-18 22:36:10Z dchassin $ 
//*********************************************

clock { 
	 timezone PST+8PDT;
	 timestamp '2000-01-01 0:00:00';
}

//*********************************************
// modules
module powerflow;


object triplex_line_conductor: {
	name 1/0 AA triplex;
	resistance 0.97;
	geometric_mean_radius 0.0111;
}

object triplex_line_configuration:1 {
	conductor_1 1/0 AA triplex;
	conductor_2 1/0 AA triplex;
	conductor_N 1/0 AA triplex;
	insulation_thickness 0.08;
	diameter 0.368;
}

object transformer:80  {
	phases "AS";
	from 8052322;
	to 8052322_RA_M;
	configuration transformer_configuration:51;
}

object triplex_meter:81 {
	name 8052322_RA_M;
	phases "AS";
	nominal_voltage 120;
	voltage_1 120;
	voltage_2 120;
	voltage_N 0;
}

object triplex_node:82 {
	name 8052322_RA_TX;
	parent 8052322_RA_M;
	phases AS;
	nominal_voltage 120;
	latitude 53N24'40.305";
	longitude 99W3'16.768";
	power_1 17.4479566973316+11.2812713277314j;
	voltage_1 120;
	voltage_2 120;
	voltage_N 0;
}

object transformer:83  {
	phases "BS";
	from 8052322;
	to 8052322_RB_M;
	configuration transformer_configuration:59;
}

object triplex_meter:84 {
	name 8052322_RB_M;
	phases "BS";
	nominal_voltage 120;
	voltage_1 -60.000-103.923j;
	voltage_2 -60.000-103.923j;
	voltage_N 0;
}

object triplex_node:85 {
	name 8052322_RB_TX;
	parent 8052322_RB_M;
	phases BS;
	nominal_voltage 120;
	latitude 53N24'40.305";
	longitude 99W3'16.768";
	power_1 21.5183199316825+13.9476490220775j;
	voltage_1 -60.000-103.923j;
	voltage_2 -60.000-103.923j;
	voltage_N 0;
}

object transformer:86  {
	phases "CS";
	from 8052322;
	to 8052322_RC_M;
	configuration transformer_configuration:67;
}

object triplex_meter:87 {
	name 8052322_RC_M;
	phases "CS";
	nominal_voltage 120;
	voltage_1 -60.000+103.923j;
	voltage_2 -60.000+103.923j;
	voltage_N 0;
}

object triplex_node:88 {
	name 8052322_RC_TX;
	parent 8052322_RC_M;
	phases CS;
	nominal_voltage 120;
	latitude 53N24'40.305";
	longitude 99W3'16.768";
	power_1 17.9395026120961+11.5823431416792j;
	voltage_1 -60.000+103.923j;
	voltage_2 -60.000+103.923j;
	voltage_N 0;
}

object transformer:89  {
	phases "AS";
	from 8080238;
	to 8080238_RA_M;
	configuration transformer_configuration:52;
}

object triplex_meter:90 {
	name 8080238_RA_M;
	phases "AS";
	nominal_voltage 120;
	voltage_1 120;
	voltage_2 120;
	voltage_N 0;
}

object triplex_node:91 {
	name 8080238_RA_TX;
	parent 8080238_RA_M;
	phases AS;
	nominal_voltage 120;
	latitude 53N24'58.605";
	longitude 99W3'29.085";
	power_1 22.7332059377147+14.6985385613534j;
	voltage_1 120;
	voltage_2 120;
	voltage_N 0;
}

object transformer:92  {
	phases "AS";
	from 8080239;
	to 8080239_RA_M;
	configuration transformer_configuration:51;
}

object triplex_meter:93 {
	name 8080239_RA_M;
	phases "AS";
	nominal_voltage 120;
	voltage_1 120;
	voltage_2 120;
	voltage_N 0;
}

object triplex_node:94 {
	name 8080239_RA_TX;
	parent 8080239_RA_M;
	phases AS;
	nominal_voltage 120;
	latitude 53N24'55.614";
	longitude 99W3'23.892";
	power_1 15.2365553415228+9.85145240152966j;
	voltage_1 120;
	voltage_2 120;
	voltage_N 0;
}

object transformer:95  {
	phases "AS";
	from 8080240;
	to 8080240_RA_M;
	configuration transformer_configuration:52;
}

object triplex_meter:96 {
	name 8080240_RA_M;
	phases "AS";
	nominal_voltage 120;
	voltage_1 120;
	voltage_2 120;
	voltage_N 0;
}

object triplex_node:97 {
	name 8080240_RA_TX;
	parent 8080240_RA_M;
	phases AS;
	nominal_voltage 120;
	latitude 53N24'58.046";
	longitude 99W3'22.660";
	power_1 23.3745123308993+15.1131860499519j;
	voltage_1 120;
	voltage_2 120;
	voltage_N 0;
}

object transformer:98  {
	phases "A|B|C|N";
	from 8080254;
	to 8080254_C_M;
	configuration transformer_configuration:75;
}

object meter:99 {
	name 8080254_C_M;
	phases "ABCN";
	nominal_voltage 6928.203;
	voltage_A 6928.203+0.0j;
	voltage_B -3464.101-6000.000j;
	voltage_C -3464.101+6000.000j;
}
object transformer:100  {
	phases "A|B|C|N";
	from 8080255;
	to 8080255_C_M;
	configuration transformer_configuration:76;
}

object meter:101 {
	name 8080255_C_M;
	phases "ABCN";
	nominal_voltage 6928.203;
	voltage_A 6928.203+0.0j;
	voltage_B -3464.101-6000.000j;
	voltage_C -3464.101+6000.000j;
}
object transformer:102  {
	phases "A|B|C|N";
	from 8080257;
	to 8080257_C_M;
	configuration transformer_configuration:77;
}

object meter:103 {
	name 8080257_C_M;
	phases "ABCN";
	nominal_voltage 6928.203;
	voltage_A 6928.203+0.0j;
	voltage_B -3464.101-6000.000j;
	voltage_C -3464.101+6000.000j;
}
object transformer:104  {
	phases "AS";
	from 8080258;
	to 8080258_RA_M;
	configuration transformer_configuration:54;
}

object triplex_meter:105 {
	name 8080258_RA_M;
	phases "AS";
	nominal_voltage 120;
	voltage_1 120;
	voltage_2 120;
	voltage_N 0;
}

object triplex_node:106 {
	name 8080258_RA_TX;
	parent 8080258_RA_M;
	phases AS;
	nominal_voltage 120;
	latitude 53N24'57.535";
	longitude 99W3'10.766";
	power_1 50.0513840198064+32.3615683630316j;
	voltage_1 120;
	voltage_2 120;
	voltage_N 0;
}

object transformer:107  {
	phases "BS";
	from 8080258;
	to 8080258_RB_M;
	configuration transformer_configuration:61;
}

object triplex_meter:108 {
	name 8080258_RB_M;
	phases "BS";
	nominal_voltage 120;
	voltage_1 -60.000-103.923j;
	voltage_2 -60.000-103.923j;
	voltage_N 0;
}

object triplex_node:109 {
	name 8080258_RB_TX;
	parent 8080258_RB_M;
	phases BS;
	nominal_voltage 120;
	latitude 53N24'57.535";
	longitude 99W3'10.766";
	power_1 61.7276689210496+40.0103662272523j;
	voltage_1 -60.000-103.923j;
	voltage_2 -60.000-103.923j;
	voltage_N 0;
}

object transformer:110  {
	phases "CS";
	from 8080258;
	to 8080258_RC_M;
	configuration transformer_configuration:70;
}

object triplex_meter:111 {
	name 8080258_RC_M;
	phases "CS";
	nominal_voltage 120;
	voltage_1 -60.000+103.923j;
	voltage_2 -60.000+103.923j;
	voltage_N 0;
}

object triplex_node:112 {
	name 8080258_RC_TX;
	parent 8080258_RC_M;
	phases CS;
	nominal_voltage 120;
	latitude 53N24'57.535";
	longitude 99W3'10.766";
	power_1 51.4614375733556+33.2252259957761j;
	voltage_1 -60.000+103.923j;
	voltage_2 -60.000+103.923j;
	voltage_N 0;
}

object transformer:113  {
	phases "AS";
	from 8080259;
	to 8080259_RA_M;
	configuration transformer_configuration:55;
}

object triplex_meter:114 {
	name 8080259_RA_M;
	phases "AS";
	nominal_voltage 120;
	voltage_1 120;
	voltage_2 120;
	voltage_N 0;
}

object triplex_node:115 {
	name 8080259_RA_TX;
	parent 8080259_RA_M;
	phases AS;
	nominal_voltage 120;
	latitude 53N24'52.518";
	longitude 99W3'10.770";
	power_1 99.203464821584+64.1416770294079j;
	voltage_1 120;
	voltage_2 120;
	voltage_N 0;
}

object transformer:116  {
	phases "BS";
	from 8080259;
	to 8080259_RB_M;
	configuration transformer_configuration:62;
}

object triplex_meter:117 {
	name 8080259_RB_M;
	phases "BS";
	nominal_voltage 120;
	voltage_1 -60.000-103.923j;
	voltage_2 -60.000-103.923j;
	voltage_N 0;
}

object triplex_node:118 {
	name 8080259_RB_TX;
	parent 8080259_RB_M;
	phases BS;
	nominal_voltage 120;
	latitude 53N24'52.518";
	longitude 99W3'10.770";
	power_1 122.346239814357+79.30184222185j;
	voltage_1 -60.000-103.923j;
	voltage_2 -60.000-103.923j;
	voltage_N 0;
}

object transformer:119  {
	phases "CS";
	from 8080259;
	to 8080259_RC_M;
	configuration transformer_configuration:71;
}

object triplex_meter:120 {
	name 8080259_RC_M;
	phases "CS";
	nominal_voltage 120;
	voltage_1 -60.000+103.923j;
	voltage_2 -60.000+103.923j;
	voltage_N 0;
}

object triplex_node:121 {
	name 8080259_RC_TX;
	parent 8080259_RC_M;
	phases CS;
	nominal_voltage 120;
	latitude 53N24'52.518";
	longitude 99W3'10.770";
	power_1 101.998236651284+65.8534744405235j;
	voltage_1 -60.000+103.923j;
	voltage_2 -60.000+103.923j;
	voltage_N 0;
}

object transformer:122  {
	phases "AS";
	from 8080260;
	to 8080260_RA_M;
	configuration transformer_configuration:55;
}

object triplex_meter:123 {
	name 8080260_RA_M;
	phases "AS";
	nominal_voltage 120;
	voltage_1 120;
	voltage_2 120;
	voltage_N 0;
}

object triplex_node:124 {
	name 8080260_RA_TX;
	parent 8080260_RA_M;
	phases AS;
	nominal_voltage 120;
	latitude 53N24'46.451";
	longitude 99W3'14.569";
	power_1 90.3210027090852+58.3985710091644j;
	voltage_1 120;
	voltage_2 120;
	voltage_N 0;
}

object transformer:125  {
	phases "BS";
	from 8080260;
	to 8080260_RB_M;
	configuration transformer_configuration:62;
}

object triplex_meter:126 {
	name 8080260_RB_M;
	phases "BS";
	nominal_voltage 120;
	voltage_1 -60.000-103.923j;
	voltage_2 -60.000-103.923j;
	voltage_N 0;
}

object triplex_node:127 {
	name 8080260_RB_TX;
	parent 8080260_RB_M;
	phases BS;
	nominal_voltage 120;
	latitude 53N24'46.451";
	longitude 99W3'14.569";
	power_1 111.391624048545+72.2013280386631j;
	voltage_1 -60.000-103.923j;
	voltage_2 -60.000-103.923j;
	voltage_N 0;
}

object transformer:128  {
	phases "CS";
	from 8080260;
	to 8080260_RC_M;
	configuration transformer_configuration:71;
}

object triplex_meter:129 {
	name 8080260_RC_M;
	phases "CS";
	nominal_voltage 120;
	voltage_1 -60.000+103.923j;
	voltage_2 -60.000+103.923j;
	voltage_N 0;
}

object triplex_node:130 {
	name 8080260_RC_TX;
	parent 8080260_RC_M;
	phases CS;
	nominal_voltage 120;
	latitude 53N24'46.451";
	longitude 99W3'14.569";
	power_1 92.8655367579272+59.9570978094616j;
	voltage_1 -60.000+103.923j;
	voltage_2 -60.000+103.923j;
	voltage_N 0;
}

object transformer:131  {
	phases "AS";
	from 8080261;
	to 8080261_RA_M;
	configuration transformer_configuration:55;
}

object triplex_meter:132 {
	name 8080261_RA_M;
	phases "AS";
	nominal_voltage 120;
	voltage_1 120;
	voltage_2 120;
	voltage_N 0;
}

object triplex_node:133 {
	name 8080261_RA_TX;
	parent 8080261_RA_M;
	phases AS;
	nominal_voltage 120;
	latitude 53N24'42.556";
	longitude 99W3'11.522";
	power_1 83.8710820879761+54.2282658077428j;
	voltage_1 120;
	voltage_2 120;
	voltage_N 0;
}

object transformer:134  {
	phases "BS";
	from 8080261;
	to 8080261_RB_M;
	configuration transformer_configuration:62;
}

object triplex_meter:135 {
	name 8080261_RB_M;
	phases "BS";
	nominal_voltage 120;
	voltage_1 -60.000-103.923j;
	voltage_2 -60.000-103.923j;
	voltage_N 0;
}

object triplex_node:136 {
	name 8080261_RB_TX;
	parent 8080261_RB_M;
	phases BS;
	nominal_voltage 120;
	latitude 53N24'42.556";
	longitude 99W3'11.522";
	power_1 103.4370275381+67.045353009378j;
	voltage_1 -60.000-103.923j;
	voltage_2 -60.000-103.923j;
	voltage_N 0;
}

object transformer:137  {
	phases "CS";
	from 8080261;
	to 8080261_RC_M;
	configuration transformer_configuration:71;
}

object triplex_meter:138 {
	name 8080261_RC_M;
	phases "CS";
	nominal_voltage 120;
	voltage_1 -60.000+103.923j;
	voltage_2 -60.000+103.923j;
	voltage_N 0;
}

object triplex_node:139 {
	name 8080261_RC_TX;
	parent 8080261_RC_M;
	phases CS;
	nominal_voltage 120;
	latitude 53N24'42.556";
	longitude 99W3'11.522";
	power_1 86.2339082046597+55.6754965213462j;
	voltage_1 -60.000+103.923j;
	voltage_2 -60.000+103.923j;
	voltage_N 0;
}

object transformer:140  {
	phases "AS";
	from 8080266;
	to 8080266_RA_M;
	configuration transformer_configuration:51;
}

object triplex_meter:141 {
	name 8080266_RA_M;
	phases "AS";
	nominal_voltage 120;
	voltage_1 120;
	voltage_2 120;
	voltage_N 0;
}

object triplex_node:142 {
	name 8080266_RA_TX;
	parent 8080266_RA_M;
	phases AS;
	nominal_voltage 120;
	latitude 53N24'55.752";
	longitude 99W3'27.912";
	power_1 20.4333485276736+13.2115268781036j;
	voltage_1 120;
	voltage_2 120;
	voltage_N 0;
}

object transformer:143  {
	phases "AS";
	from 8053208;
	to 8053208_RA_M;
	configuration transformer_configuration:54;
}

object triplex_meter:144 {
	name 8053208_RA_M;
	phases "AS";
	nominal_voltage 120;
	voltage_1 120;
	voltage_2 120;
	voltage_N 0;
}

object triplex_node:145 {
	name 8053208_RA_TX;
	parent 8053208_RA_M;
	phases AS;
	nominal_voltage 120;
	latitude 53N24'56.133";
	longitude 99W3'6.606";
	power_1 33.7164993382319+21.7999725614885j;
	voltage_1 120;
	voltage_2 120;
	voltage_N 0;
}

object transformer:146  {
	phases "BS";
	from 8053208;
	to 8053208_RB_M;
	configuration transformer_configuration:61;
}

object triplex_meter:147 {
	name 8053208_RB_M;
	phases "BS";
	nominal_voltage 120;
	voltage_1 -60.000-103.923j;
	voltage_2 -60.000-103.923j;
	voltage_N 0;
}

object triplex_node:148 {
	name 8053208_RB_TX;
	parent 8053208_RB_M;
	phases BS;
	nominal_voltage 120;
	latitude 53N24'56.133";
	longitude 99W3'6.606";
	power_1 41.5820850728838+26.9524911816572j;
	voltage_1 -60.000-103.923j;
	voltage_2 -60.000-103.923j;
	voltage_N 0;
}

object transformer:149  {
	phases "CS";
	from 8053208;
	to 8053208_RC_M;
	configuration transformer_configuration:70;
}

object triplex_meter:150 {
	name 8053208_RC_M;
	phases "CS";
	nominal_voltage 120;
	voltage_1 -60.000+103.923j;
	voltage_2 -60.000+103.923j;
	voltage_N 0;
}

object triplex_node:151 {
	name 8053208_RC_TX;
	parent 8053208_RC_M;
	phases CS;
	nominal_voltage 120;
	latitude 53N24'56.133";
	longitude 99W3'6.606";
	power_1 34.6663645744519+22.3817649049602j;
	voltage_1 -60.000+103.923j;
	voltage_2 -60.000+103.923j;
	voltage_N 0;
}

object transformer:152  {
	phases "AS";
	from 8053209;
	to 8053209_RA_M;
	configuration transformer_configuration:56;
}

object triplex_meter:153 {
	name 8053209_RA_M;
	phases "AS";
	nominal_voltage 120;
	voltage_1 120;
	voltage_2 120;
	voltage_N 0;
}

object triplex_node:154 {
	name 8053209_RA_TX;
	parent 8053209_RA_M;
	phases AS;
	nominal_voltage 120;
	latitude 53N24'56.404";
	longitude 99W3'0.018";
	power_1 139.237200699576+90.0261656567459j;
	voltage_1 120;
	voltage_2 120;
	voltage_N 0;
}

object transformer:155  {
	phases "BS";
	from 8053209;
	to 8053209_RB_M;
	configuration transformer_configuration:63;
}

object triplex_meter:156 {
	name 8053209_RB_M;
	phases "BS";
	nominal_voltage 120;
	voltage_1 -60.000-103.923j;
	voltage_2 -60.000-103.923j;
	voltage_N 0;
}

object triplex_node:157 {
	name 8053209_RB_TX;
	parent 8053209_RB_M;
	phases BS;
	nominal_voltage 120;
	latitude 53N24'56.404";
	longitude 99W3'0.018";
	power_1 171.719283983756+111.304242660761j;
	voltage_1 -60.000-103.923j;
	voltage_2 -60.000-103.923j;
	voltage_N 0;
}

object transformer:158  {
	phases "CS";
	from 8053209;
	to 8053209_RC_M;
	configuration transformer_configuration:72;
}

object triplex_meter:159 {
	name 8053209_RC_M;
	phases "CS";
	nominal_voltage 120;
	voltage_1 -60.000+103.923j;
	voltage_2 -60.000+103.923j;
	voltage_N 0;
}

object triplex_node:160 {
	name 8053209_RC_TX;
	parent 8053209_RC_M;
	phases CS;
	nominal_voltage 120;
	latitude 53N24'56.404";
	longitude 99W3'0.018";
	power_1 143.159807705908+92.4287619785294j;
	voltage_1 -60.000+103.923j;
	voltage_2 -60.000+103.923j;
	voltage_N 0;
}

object transformer:161  {
	phases "A|B|C|N";
	from 8053210;
	to 8053210_C_M;
	configuration transformer_configuration:77;
}

object meter:162 {
	name 8053210_C_M;
	phases "ABCN";
	nominal_voltage 6928.203;
	voltage_A 6928.203+0.0j;
	voltage_B -3464.101-6000.000j;
	voltage_C -3464.101+6000.000j;
}
object transformer:163  {
	phases "AS";
	from 8053218;
	to 8053218_RA_M;
	configuration transformer_configuration:57;
}

object triplex_meter:164 {
	name 8053218_RA_M;
	phases "AS";
	nominal_voltage 120;
	voltage_1 120;
	voltage_2 120;
	voltage_N 0;
}

object triplex_node:165 {
	name 8053218_RA_TX;
	parent 8053218_RA_M;
	phases AS;
	nominal_voltage 120;
	latitude 53N24'52.478";
	longitude 99W3'1.699";
	power_1 55.9115976126998+36.1505885174661j;
	voltage_1 120;
	voltage_2 120;
	voltage_N 0;
}

object transformer:166  {
	phases "BS";
	from 8053218;
	to 8053218_RB_M;
	configuration transformer_configuration:64;
}

object triplex_meter:167 {
	name 8053218_RB_M;
	phases "BS";
	nominal_voltage 120;
	voltage_1 -60.000-103.923j;
	voltage_2 -60.000-103.923j;
	voltage_N 0;
}

object triplex_node:168 {
	name 8053218_RB_TX;
	parent 8053218_RB_M;
	phases BS;
	nominal_voltage 120;
	latitude 53N24'52.478";
	longitude 99W3'1.699";
	power_1 68.9549880362535+44.6949378252885j;
	voltage_1 -60.000-103.923j;
	voltage_2 -60.000-103.923j;
	voltage_N 0;
}

object transformer:169  {
	phases "CS";
	from 8053218;
	to 8053218_RC_M;
	configuration transformer_configuration:73;
}

object triplex_meter:170 {
	name 8053218_RC_M;
	phases "CS";
	nominal_voltage 120;
	voltage_1 -60.000+103.923j;
	voltage_2 -60.000+103.923j;
	voltage_N 0;
}

object triplex_node:171 {
	name 8053218_RC_TX;
	parent 8053218_RC_M;
	phases CS;
	nominal_voltage 120;
	latitude 53N24'52.478";
	longitude 99W3'1.699";
	power_1 57.4867458017528+37.1153665946924j;
	voltage_1 -60.000+103.923j;
	voltage_2 -60.000+103.923j;
	voltage_N 0;
}

object transformer:172  {
	phases "AS";
	from 8053224;
	to 8053224_RA_M;
	configuration transformer_configuration:54;
}

object triplex_meter:173 {
	name 8053224_RA_M;
	phases "AS";
	nominal_voltage 120;
	voltage_1 120;
	voltage_2 120;
	voltage_N 0;
}

object triplex_node:174 {
	name 8053224_RA_TX;
	parent 8053224_RA_M;
	phases AS;
	nominal_voltage 120;
	latitude 53N24'47.008";
	longitude 99W3'7.911";
	power_1 43.8963169128052+28.3819056851036j;
	voltage_1 120;
	voltage_2 120;
	voltage_N 0;
}

object transformer:175  {
	phases "BS";
	from 8053224;
	to 8053224_RB_M;
	configuration transformer_configuration:61;
}

object triplex_meter:176 {
	name 8053224_RB_M;
	phases "BS";
	nominal_voltage 120;
	voltage_1 -60.000-103.923j;
	voltage_2 -60.000-103.923j;
	voltage_N 0;
}

object triplex_node:177 {
	name 8053224_RB_TX;
	parent 8053224_RB_M;
	phases BS;
	nominal_voltage 120;
	latitude 53N24'47.008";
	longitude 99W3'7.911";
	power_1 54.1367111082254+35.0900929135917j;
	voltage_1 -60.000-103.923j;
	voltage_2 -60.000-103.923j;
	voltage_N 0;
}

object transformer:178  {
	phases "CS";
	from 8053224;
	to 8053224_RC_M;
	configuration transformer_configuration:70;
}

object triplex_meter:179 {
	name 8053224_RC_M;
	phases "CS";
	nominal_voltage 120;
	voltage_1 -60.000+103.923j;
	voltage_2 -60.000+103.923j;
	voltage_N 0;
}

object triplex_node:180 {
	name 8053224_RC_TX;
	parent 8053224_RC_M;
	phases CS;
	nominal_voltage 120;
	latitude 53N24'47.008";
	longitude 99W3'7.911";
	power_1 45.1329691825232+29.1393550522602j;
	voltage_1 -60.000+103.923j;
	voltage_2 -60.000+103.923j;
	voltage_N 0;
}

object transformer:181  {
	phases "A|B|C|N";
	from 8054126;
	to 8054126_C_M;
	configuration transformer_configuration:78;
}

object meter:182 {
	name 8054126_C_M;
	phases "ABCN";
	nominal_voltage 6928.203;
	voltage_A 6928.203+0.0j;
	voltage_B -3464.101-6000.000j;
	voltage_C -3464.101+6000.000j;
}
object transformer:183  {
	phases "A|B|C|N";
	from 8054133;
	to 8054133_C_M;
	configuration transformer_configuration:78;
}

object meter:184 {
	name 8054133_C_M;
	phases "ABCN";
	nominal_voltage 6928.203;
	voltage_A 6928.203+0.0j;
	voltage_B -3464.101-6000.000j;
	voltage_C -3464.101+6000.000j;
}
object transformer:185  {
	phases "A|B|C|N";
	from 8054160;
	to 8054160_C_M;
	configuration transformer_configuration:79;
}

object meter:186 {
	name 8054160_C_M;
	phases "ABCN";
	nominal_voltage 6928.203;
	voltage_A 6928.203+0.0j;
	voltage_B -3464.101-6000.000j;
	voltage_C -3464.101+6000.000j;
}
object transformer:187  {
	phases "A|B|C|N";
	from 8054162;
	to 8054162_C_M;
	configuration transformer_configuration:78;
}

object meter:188 {
	name 8054162_C_M;
	phases "ABCN";
	nominal_voltage 6928.203;
	voltage_A 6928.203+0.0j;
	voltage_B -3464.101-6000.000j;
	voltage_C -3464.101+6000.000j;
}
object transformer:189  {
	phases "A|B|C|N";
	from 8054163;
	to 8054163_C_M;
	configuration transformer_configuration:77;
}

object meter:190 {
	name 8054163_C_M;
	phases "ABCN";
	nominal_voltage 6928.203;
	voltage_A 6928.203+0.0j;
	voltage_B -3464.101-6000.000j;
	voltage_C -3464.101+6000.000j;
}
object transformer:191  {
	phases "A|B|C|N";
	from 8054169;
	to 8054169_C_M;
	configuration transformer_configuration:77;
}

object meter:192 {
	name 8054169_C_M;
	phases "ABCN";
	nominal_voltage 6928.203;
	voltage_A 6928.203+0.0j;
	voltage_B -3464.101-6000.000j;
	voltage_C -3464.101+6000.000j;
}
object transformer:193  {
	phases "AS";
	from 8079275;
	to 8079275_RA_M;
	configuration transformer_configuration:58;
}

object triplex_meter:194 {
	name 8079275_RA_M;
	phases "AS";
	nominal_voltage 120;
	voltage_1 120;
	voltage_2 120;
	voltage_N 0;
}

object triplex_node:195 {
	name 8079275_RA_TX;
	parent 8079275_RA_M;
	phases AS;
	nominal_voltage 120;
	latitude 53N25'12.127";
	longitude 99W2'58.190";
	power_1 9.82599335764389+6.35316209542285j;
	voltage_1 120;
	voltage_2 120;
	voltage_N 0;
}

object transformer:196  {
	phases "BS";
	from 8079275;
	to 8079275_RB_M;
	configuration transformer_configuration:66;
}

object triplex_meter:197 {
	name 8079275_RB_M;
	phases "BS";
	nominal_voltage 120;
	voltage_1 -60.000-103.923j;
	voltage_2 -60.000-103.923j;
	voltage_N 0;
}

object triplex_node:198 {
	name 8079275_RB_TX;
	parent 8079275_RB_M;
	phases BS;
	nominal_voltage 120;
	latitude 53N25'12.127";
	longitude 99W2'58.190";
	power_1 12.1182595981972+7.85475967318517j;
	voltage_1 -60.000-103.923j;
	voltage_2 -60.000-103.923j;
	voltage_N 0;
}

object transformer:199  {
	phases "CS";
	from 8079275;
	to 8079275_RC_M;
	configuration transformer_configuration:74;
}

object triplex_meter:200 {
	name 8079275_RC_M;
	phases "CS";
	nominal_voltage 120;
	voltage_1 -60.000+103.923j;
	voltage_2 -60.000+103.923j;
	voltage_N 0;
}

object triplex_node:201 {
	name 8079275_RC_TX;
	parent 8079275_RC_M;
	phases CS;
	nominal_voltage 120;
	latitude 53N25'12.127";
	longitude 99W2'58.190";
	power_1 10.1028124131492+6.52271373378049j;
	voltage_1 -60.000+103.923j;
	voltage_2 -60.000+103.923j;
	voltage_N 0;
}

object transformer:202  {
	phases "A|B|C|N";
	from 8079277;
	to 8079277_C_M;
	configuration transformer_configuration:77;
}

object meter:203 {
	name 8079277_C_M;
	phases "ABCN";
	nominal_voltage 6928.203;
	voltage_A 6928.203+0.0j;
	voltage_B -3464.101-6000.000j;
	voltage_C -3464.101+6000.000j;
}
object transformer:204  {
	phases "A|B|C|N";
	from 8079278;
	to 8079278_C_M;
	configuration transformer_configuration:77;
}

object meter:205 {
	name 8079278_C_M;
	phases "ABCN";
	nominal_voltage 6928.203;
	voltage_A 6928.203+0.0j;
	voltage_B -3464.101-6000.000j;
	voltage_C -3464.101+6000.000j;
}
object underground_line_conductor:49 {
	name 1000 AAC (Tape);
	rating.summer.continuous 775.0 ;
	outer_diameter 1.87;
	conductor_gmr 0.0371 ft;
	conductor_diameter 1.15;
	conductor_resistance 0.0222;
	neutral_gmr 0.0732739718442675 ft;
	neutral_resistance 0.05;
	neutral_diameter 0.102;
	neutral_strands 20.0;
	shield_gmr 0.00;
	shield_resistance 0.00;
}

object underground_line_conductor:46 {
	name 1000 AAC (Conc);
	rating.summer.continuous 488.0 ;
	outer_diameter 2.15;
	conductor_gmr 0.0371 ft;
	conductor_diameter 1.152;
	conductor_resistance 0.091872;
	neutral_gmr 0.0842565914341201 ft;
	neutral_resistance 5.3856;
	neutral_diameter 0.1019;
	neutral_strands 20.0;
	shield_gmr 0.00;
	shield_resistance 0.00;
}

object underground_line_conductor:43 {
	name 1/0 AAC (Conc);
	rating.summer.continuous 142.0 ;
	outer_diameter 1.27;
	conductor_gmr 0.01142 ft;
	conductor_diameter 0.362;
	conductor_resistance 0.88704;
	neutral_gmr 0.0489686771417213 ft;
	neutral_resistance 13.86528;
	neutral_diameter 0.0641;
	neutral_strands 16.0;
	shield_gmr 0.00;
	shield_resistance 0.00;
}

object line_spacing:554 {
	distance_AB 52.0 in;
	distance_BC 52.0 in;
	distance_AC 52.0 in;
	distance_AN 72.0 in;
	distance_BN 72.0 in;
	distance_CN 72.0 in;
}

object line_spacing:558 {
	distance_AN 72.0 in;
}

object line_spacing:560 {
	distance_CN 72.0 in;
}

object line_configuration:555 {
	conductor_A underground_line_conductor:49;
	conductor_B underground_line_conductor:49;
	conductor_C underground_line_conductor:49;
	conductor_N underground_line_conductor:49;
	spacing line_spacing:554;
}

object line_configuration:556 {
	conductor_A underground_line_conductor:46;
	conductor_B underground_line_conductor:46;
	conductor_C underground_line_conductor:46;
	conductor_N underground_line_conductor:46;
	spacing line_spacing:554;
}

object line_configuration:557 {
	conductor_A underground_line_conductor:43;
	conductor_B underground_line_conductor:43;
	conductor_C underground_line_conductor:43;
	conductor_N underground_line_conductor:43;
	spacing line_spacing:554;
}

object line_configuration:559 {
	conductor_A underground_line_conductor:43;
	conductor_N underground_line_conductor:43;
	spacing line_spacing:558;
}

object line_configuration:561 {
	conductor_C underground_line_conductor:43;
	conductor_N underground_line_conductor:43;
	spacing line_spacing:560;
}

object line_configuration:562 {
	conductor_A underground_line_conductor:46;
	conductor_N underground_line_conductor:46;
	spacing line_spacing:558;
}

object line_configuration:563 {
	conductor_C underground_line_conductor:46;
	conductor_N underground_line_conductor:46;
	spacing line_spacing:560;
}

object transformer_configuration:51 {
	connect_type SINGLE_PHASE_CENTER_TAPPED;
	install_type PADMOUNT;
	primary_voltage 6928.2 V;
	secondary_voltage 120 V;
	power_rating 10;
	powerA_rating 10;
	resistance 0.015;
	reactance 0.01;
}

object transformer_configuration:52 {
	connect_type SINGLE_PHASE_CENTER_TAPPED;
	install_type PADMOUNT;
	primary_voltage 6928.2 V;
	secondary_voltage 120 V;
	power_rating 15;
	powerA_rating 15;
	resistance 0.01;
	reactance 0.00666666666666667;
}

object transformer_configuration:53 {
	connect_type SINGLE_PHASE_CENTER_TAPPED;
	install_type PADMOUNT;
	primary_voltage 6928.2 V;
	secondary_voltage 120 V;
	power_rating 37.5;
	powerA_rating 37.5;
	resistance 0.004;
	reactance 0.00266666666666667;
}

object transformer_configuration:54 {
	connect_type SINGLE_PHASE_CENTER_TAPPED;
	install_type PADMOUNT;
	primary_voltage 6928.2 V;
	secondary_voltage 120 V;
	power_rating 25;
	powerA_rating 25;
	resistance 0.006;
	reactance 0.004;
}

object transformer_configuration:55 {
	connect_type SINGLE_PHASE_CENTER_TAPPED;
	install_type PADMOUNT;
	primary_voltage 6928.2 V;
	secondary_voltage 120 V;
	power_rating 50;
	powerA_rating 50;
	resistance 0.003;
	reactance 0.002;
}

object transformer_configuration:56 {
	connect_type SINGLE_PHASE_CENTER_TAPPED;
	install_type PADMOUNT;
	primary_voltage 6928.2 V;
	secondary_voltage 120 V;
	power_rating 75;
	powerA_rating 75;
	resistance 0.002;
	reactance 0.00133333333333333;
}

object transformer_configuration:57 {
	connect_type SINGLE_PHASE_CENTER_TAPPED;
	install_type PADMOUNT;
	primary_voltage 6928.2 V;
	secondary_voltage 120 V;
	power_rating 30;
	powerA_rating 30;
	resistance 0.005;
	reactance 0.00333333333333333;
}

object transformer_configuration:58 {
	connect_type SINGLE_PHASE_CENTER_TAPPED;
	install_type PADMOUNT;
	primary_voltage 6928.2 V;
	secondary_voltage 120 V;
	power_rating 5;
	powerA_rating 5;
	resistance 0.015;
	reactance 0.01;
}

object transformer_configuration:59 {
	connect_type SINGLE_PHASE_CENTER_TAPPED;
	install_type PADMOUNT;
	primary_voltage 6928.2 V;
	secondary_voltage 120 V;
	power_rating 10;
	powerB_rating 10;
	resistance 0.015;
	reactance 0.01;
}

object transformer_configuration:60 {
	connect_type SINGLE_PHASE_CENTER_TAPPED;
	install_type PADMOUNT;
	primary_voltage 6928.2 V;
	secondary_voltage 120 V;
	power_rating 37.5;
	powerB_rating 37.5;
	resistance 0.004;
	reactance 0.00266666666666667;
}

object transformer_configuration:61 {
	connect_type SINGLE_PHASE_CENTER_TAPPED;
	install_type PADMOUNT;
	primary_voltage 6928.2 V;
	secondary_voltage 120 V;
	power_rating 25;
	powerB_rating 25;
	resistance 0.006;
	reactance 0.004;
}

object transformer_configuration:62 {
	connect_type SINGLE_PHASE_CENTER_TAPPED;
	install_type PADMOUNT;
	primary_voltage 6928.2 V;
	secondary_voltage 120 V;
	power_rating 50;
	powerB_rating 50;
	resistance 0.003;
	reactance 0.002;
}

object transformer_configuration:63 {
	connect_type SINGLE_PHASE_CENTER_TAPPED;
	install_type PADMOUNT;
	primary_voltage 6928.2 V;
	secondary_voltage 120 V;
	power_rating 75;
	powerB_rating 75;
	resistance 0.002;
	reactance 0.00133333333333333;
}

object transformer_configuration:64 {
	connect_type SINGLE_PHASE_CENTER_TAPPED;
	install_type PADMOUNT;
	primary_voltage 6928.2 V;
	secondary_voltage 120 V;
	power_rating 30;
	powerB_rating 30;
	resistance 0.005;
	reactance 0.00333333333333333;
}

object transformer_configuration:65 {
	connect_type SINGLE_PHASE_CENTER_TAPPED;
	install_type PADMOUNT;
	primary_voltage 6928.2 V;
	secondary_voltage 120 V;
	power_rating 15;
	powerB_rating 15;
	resistance 0.01;
	reactance 0.00666666666666667;
}

object transformer_configuration:66 {
	connect_type SINGLE_PHASE_CENTER_TAPPED;