// $Id: R1-12.47-1.glm 228 2009-05-27 18:16:10Z ychen $ 
//*********************************************

clock { 
	 timezone PST+8PDT;
	 timestamp '2000-01-01 0:00:00';
}

//*********************************************
// modules
module powerflow;


object fuse:2160 {
	name R1-12-47-1_fuse_1;
	phases "BN";
	from R1-12-47-1_node_367;
	to R1-12-47-1_node_377;
	current_limit 3000.0;
	status CLOSED;
}

object fuse:2169 {
	name R1-12-47-1_fuse_2;
	phases "AN";
	from R1-12-47-1_node_174;
	to R1-12-47-1_node_413;
	current_limit 3000.0;
	status CLOSED;
}

object fuse:2175 {
	name R1-12-47-1_fuse_3;
	phases "CN";
	from R1-12-47-1_node_236;
	to R1-12-47-1_node_596;
	current_limit 3000.0;
	status CLOSED;
}

object fuse:2179 {
	name R1-12-47-1_fuse_4;
	phases "AN";
	from R1-12-47-1_node_219;
	to R1-12-47-1_node_607;
	current_limit 3000.0;
	status CLOSED;
}

object fuse:2188 {
	name R1-12-47-1_fuse_5;
	phases "AN";
	from R1-12-47-1_node_260;
	to R1-12-47-1_node_175;
	current_limit 3000.0;
	status CLOSED;
}

object fuse:2191 {
	name R1-12-47-1_fuse_6;
	phases "AN";
	from R1-12-47-1_node_4;
	to R1-12-47-1_node_188;
	current_limit 3000.0;
	status CLOSED;
}

object fuse:2197 {
	name R1-12-47-1_fuse_7;
	phases "AN";
	from R1-12-47-1_node_52;
	to R1-12-47-1_node_518;
	current_limit 3000.0;
	status CLOSED;
}

object fuse:2212 {
	name R1-12-47-1_fuse_8;
	phases "AN";
	from R1-12-47-1_node_153;
	to R1-12-47-1_node_444;
	current_limit 3000.0;
	status CLOSED;
}

object fuse:2217 {
	name R1-12-47-1_fuse_9;
	phases "AN";
	from R1-12-47-1_node_145;
	to R1-12-47-1_node_316;
	current_limit 3000.0;
	status CLOSED;
}

object fuse:2218 {
	name R1-12-47-1_fuse_10;
	phases "AN";
	from R1-12-47-1_node_473;
	to R1-12-47-1_node_30;
	current_limit 3000.0;
	status CLOSED;
}

object fuse:2221 {
	name R1-12-47-1_fuse_11;
	phases "AN";
	from R1-12-47-1_node_473;
	to R1-12-47-1_node_412;
	current_limit 3000.0;
	status CLOSED;
}

object fuse:2222 {
	name R1-12-47-1_fuse_12;
	phases "AN";
	from R1-12-47-1_node_347;
	to R1-12-47-1_node_345;
	current_limit 3000.0;
	status CLOSED;
}

object fuse:2240 {
	name R1-12-47-1_fuse_13;
	phases "AN";
	from R1-12-47-1_node_570;
	to R1-12-47-1_node_275;
	current_limit 3000.0;
	status CLOSED;
}

object fuse:2250 {
	name R1-12-47-1_fuse_14;
	phases "AN";
	from R1-12-47-1_node_478;
	to R1-12-47-1_node_356;
	current_limit 3000.0;
	status CLOSED;
}

object fuse:2253 {
	name R1-12-47-1_fuse_15;
	phases "AN";
	from R1-12-47-1_node_154;
	to R1-12-47-1_node_592;
	current_limit 3000.0;
	status CLOSED;
}

object fuse:2257 {
	name R1-12-47-1_fuse_16;
	phases "BN";
	from R1-12-47-1_node_519;
	to R1-12-47-1_node_521;
	current_limit 3000.0;
	status CLOSED;
}

object fuse:2259 {
	name R1-12-47-1_fuse_17;
	phases "CN";
	from R1-12-47-1_node_130;
	to R1-12-47-1_node_389;
	current_limit 3000.0;
	status CLOSED;
}

object fuse:2260 {
	name R1-12-47-1_fuse_18;
	phases "AN";
	from R1-12-47-1_node_610;
	to R1-12-47-1_node_593;
	current_limit 3000.0;
	status CLOSED;
}

object fuse:2270 {
	name R1-12-47-1_fuse_19;
	phases "AN";
	from R1-12-47-1_node_135;
	to R1-12-47-1_node_298;
	current_limit 3000.0;
	status CLOSED;
}

object fuse:2275 {
	name R1-12-47-1_fuse_20;
	phases "AN";
	from R1-12-47-1_node_357;
	to R1-12-47-1_node_15;
	current_limit 3000.0;
	status CLOSED;
}

object fuse:2277 {
	name R1-12-47-1_fuse_21;
	phases "AN";
	from R1-12-47-1_node_84;
	to R1-12-47-1_node_209;
	current_limit 3000.0;
	status CLOSED;
}

object fuse:2282 {
	name R1-12-47-1_fuse_22;
	phases "AN";
	from R1-12-47-1_node_443;
	to R1-12-47-1_node_6;
	current_limit 3000.0;
	status CLOSED;
}

object fuse:2287 {
	name R1-12-47-1_fuse_23;
	phases "CN";
	from R1-12-47-1_node_547;
	to R1-12-47-1_node_605;
	current_limit 3000.0;
	status CLOSED;
}

object fuse:2288 {
	name R1-12-47-1_fuse_24;
	phases "AN";
	from R1-12-47-1_node_227;
	to R1-12-47-1_node_341;
	current_limit 3000.0;
	status CLOSED;
}

object fuse:2299 {
	name R1-12-47-1_fuse_25;
	phases "AN";
	from R1-12-47-1_node_24;
	to R1-12-47-1_node_194;
	current_limit 3000.0;
	status CLOSED;
}

object fuse:2301 {
	name R1-12-47-1_fuse_26;
	phases "AN";
	from R1-12-47-1_node_285;
	to R1-12-47-1_node_50;
	current_limit 3000.0;
	status CLOSED;
}

object fuse:2316 {
	name R1-12-47-1_fuse_27;
	phases "CN";
	from R1-12-47-1_node_111;
	to R1-12-47-1_node_70;
	current_limit 3000.0;
	status CLOSED;
}

object fuse:2317 {
	name R1-12-47-1_fuse_28;
	phases "ABCN";
	from R1-12-47-1_node_136;
	to R1-12-47-1_node_19;
	current_limit 3000.0;
	status CLOSED;
}

object fuse:2318 {
	name R1-12-47-1_fuse_29;
	phases "AN";
	from R1-12-47-1_node_515;
	to R1-12-47-1_node_8;
	current_limit 3000.0;
	status CLOSED;
}

object fuse:2320 {
	name R1-12-47-1_fuse_30;
	phases "AN";
	from R1-12-47-1_node_394;
	to R1-12-47-1_node_7;
	current_limit 3000.0;
	status CLOSED;
}

object fuse:2327 {
	name R1-12-47-1_fuse_31;
	phases "CN";
	from R1-12-47-1_node_304;
	to R1-12-47-1_node_115;
	current_limit 3000.0;
	status CLOSED;
}

object fuse:2336 {
	name R1-12-47-1_fuse_32;
	phases "BN";
	from R1-12-47-1_node_332;
	to R1-12-47-1_node_404;
	current_limit 3000.0;
	status CLOSED;
}

object fuse:2337 {
	name R1-12-47-1_fuse_33;
	phases "BN";
	from R1-12-47-1_node_304;
	to R1-12-47-1_node_229;
	current_limit 3000.0;
	status CLOSED;
}

object fuse:2351 {
	name R1-12-47-1_fuse_34;
	phases "BN";
	from R1-12-47-1_node_505;
	to R1-12-47-1_node_399;
	current_limit 3000.0;
	status CLOSED;
}

object fuse:2353 {
	name R1-12-47-1_fuse_35;
	phases "AN";
	from R1-12-47-1_node_320;
	to R1-12-47-1_node_566;
	current_limit 3000.0;
	status CLOSED;
}

object fuse:2357 {
	name R1-12-47-1_fuse_36;
	phases "BN";
	from R1-12-47-1_node_554;
	to R1-12-47-1_node_157;
	current_limit 3000.0;
	status CLOSED;
}

object fuse:2359 {
	name R1-12-47-1_fuse_37;
	phases "AN";
	from R1-12-47-1_node_477;
	to R1-12-47-1_node_451;
	current_limit 3000.0;
	status CLOSED;
}

object fuse:2363 {
	name R1-12-47-1_fuse_38;
	phases "ABCN";
	from R1-12-47-1_node_453;
	to R1-12-47-1_node_308;
	current_limit 3000.0;
	status CLOSED;
}

object fuse:2364 {
	name R1-12-47-1_fuse_39;
	phases "AN";
	from R1-12-47-1_node_213;
	to R1-12-47-1_node_310;
	current_limit 3000.0;
	status CLOSED;
}

object fuse:2368 {
	name R1-12-47-1_fuse_40;
	phases "CN";
	from R1-12-47-1_node_234;
	to R1-12-47-1_node_169;
	current_limit 3000.0;
	status CLOSED;
}

object fuse:2369 {
	name R1-12-47-1_fuse_41;
	phases "AN";
	from R1-12-47-1_node_507;
	to R1-12-47-1_node_406;
	current_limit 3000.0;
	status CLOSED;
}

object fuse:2371 {
	name R1-12-47-1_fuse_42;
	phases "AN";
	from R1-12-47-1_node_183;
	to R1-12-47-1_node_384;
	current_limit 3000.0;
	status CLOSED;
}

object fuse:2374 {
	name R1-12-47-1_fuse_43;
	phases "AN";
	from R1-12-47-1_node_384;
	to R1-12-47-1_node_535;
	current_limit 3000.0;
	status CLOSED;
}

object fuse:2376 {
	name R1-12-47-1_fuse_44;
	phases "AN";
	from R1-12-47-1_node_420;
	to R1-12-47-1_node_468;
	current_limit 3000.0;
	status CLOSED;
}

object fuse:2380 {
	name R1-12-47-1_fuse_45;
	phases "AN";
	from R1-12-47-1_node_469;
	to R1-12-47-1_node_161;
	current_limit 3000.0;
	status CLOSED;
}

object fuse:2382 {
	name R1-12-47-1_fuse_46;
	phases "CN";
	from R1-12-47-1_node_338;
	to R1-12-47-1_node_493;
	current_limit 3000.0;
	status CLOSED;
}

object fuse:2385 {
	name R1-12-47-1_fuse_47;
	phases "AN";
	from R1-12-47-1_node_565;
	to R1-12-47-1_node_17;
	current_limit 3000.0;
	status CLOSED;
}

object fuse:2388 {
	name R1-12-47-1_fuse_48;
	phases "CN";
	from R1-12-47-1_node_21;
	to R1-12-47-1_node_273;
	current_limit 3000.0;
	status CLOSED;
}

object fuse:2390 {
	name R1-12-47-1_fuse_49;
	phases "CN";
	from R1-12-47-1_node_504;
	to R1-12-47-1_node_131;
	current_limit 3000.0;
	status CLOSED;
}

object fuse:2391 {
	name R1-12-47-1_fuse_50;
	phases "AN";
	from R1-12-47-1_node_101;
	to R1-12-47-1_node_421;
	current_limit 3000.0;
	status CLOSED;
}

object fuse:2393 {
	name R1-12-47-1_fuse_51;
	phases "ABCN";
	from R1-12-47-1_node_74;
	to R1-12-47-1_node_573;
	current_limit 3000.0;
	status CLOSED;
}

object fuse:2416 {
	name R1-12-47-1_fuse_52;
	phases "ABCN";
	from R1-12-47-1_node_467;
	to R1-12-47-1_node_418;
	current_limit 3000.0;
	status CLOSED;
}

object fuse:2424 {
	name R1-12-47-1_fuse_53;
	phases "BN";
	from R1-12-47-1_node_261;
	to R1-12-47-1_node_532;
	current_limit 3000.0;
	status CLOSED;
}

object fuse:2427 {
	name R1-12-47-1_fuse_54;
	phases "AN";
	from R1-12-47-1_node_382;
	to R1-12-47-1_node_242;
	current_limit 3000.0;
	status CLOSED;
}

object fuse:2436 {
	name R1-12-47-1_fuse_55;
	phases "ABCN";
	from R1-12-47-1_node_150;
	to R1-12-47-1_node_501;
	current_limit 3000.0;
	status CLOSED;
}

object fuse:2444 {
	name R1-12-47-1_fuse_56;
	phases "CN";
	from R1-12-47-1_node_101;
	to R1-12-47-1_node_400;
	current_limit 3000.0;
	status CLOSED;
}

object fuse:2449 {
	name R1-12-47-1_fuse_57;
	phases "AN";
	from R1-12-47-1_node_286;
	to R1-12-47-1_node_348;
	current_limit 3000.0;
	status CLOSED;
}

object fuse:2451 {
	name R1-12-47-1_fuse_58;
	phases "AN";
	from R1-12-47-1_node_348;
	to R1-12-47-1_node_133;
	current_limit 3000.0;
	status CLOSED;
}

object fuse:2454 {
	name R1-12-47-1_fuse_59;
	phases "CN";
	from R1-12-47-1_node_446;
	to R1-12-47-1_node_191;
	current_limit 3000.0;
	status CLOSED;
}

object fuse:2464 {
	name R1-12-47-1_fuse_60;
	phases "AN";
	from R1-12-47-1_node_26;
	to R1-12-47-1_node_324;
	current_limit 3000.0;
	status CLOSED;
}

object fuse:2468 {
	name R1-12-47-1_fuse_61;
	phases "CN";
	from R1-12-47-1_node_507;
	to R1-12-47-1_node_361;
	current_limit 3000.0;
	status CLOSED;
}

object fuse:2477 {
	name R1-12-47-1_fuse_62;
	phases "AN";
	from R1-12-47-1_node_66;
	to R1-12-47-1_node_307;
	current_limit 3000.0;
	status CLOSED;
}

object fuse:2480 {
	name R1-12-47-1_fuse_63;
	phases "ABCN";
	from R1-12-47-1_node_26;
	to R1-12-47-1_node_53;
	current_limit 3000.0;
	status CLOSED;
}

object fuse:2487 {
	name R1-12-47-1_fuse_64;
	phases "CN";
	from R1-12-47-1_node_12;
	to R1-12-47-1_node_342;
	current_limit 3000.0;
	status CLOSED;
}

object fuse:2510 {
	name R1-12-47-1_fuse_65;
	phases "AN";
	from R1-12-47-1_node_141;
	to R1-12-47-1_node_270;
	current_limit 3000.0;
	status CLOSED;
}

object fuse:2520 {
	name R1-12-47-1_fuse_66;
	phases "BN";
	from R1-12-47-1_node_180;
	to R1-12-47-1_node_376;
	current_limit 3000.0;
	status CLOSED;
}

object fuse:2527 {
	name R1-12-47-1_fuse_67;
	phases "AN";
	from R1-12-47-1_node_607;
	to R1-12-47-1_node_562;
	current_limit 3000.0;
	status CLOSED;
}

object fuse:2533 {
	name R1-12-47-1_fuse_68;
	phases "AN";
	from R1-12-47-1_node_571;
	to R1-12-47-1_node_201;
	current_limit 3000.0;
	status CLOSED;
}

object fuse:2537 {
	name R1-12-47-1_fuse_69;
	phases "AN";
	from R1-12-47-1_node_582;
	to R1-12-47-1_node_527;
	current_limit 3000.0;
	status CLOSED;
}

object fuse:2539 {
	name R1-12-47-1_fuse_70;
	phases "BN";
	from R1-12-47-1_node_367;
	to R1-12-47-1_node_580;
	current_limit 3000.0;
	status CLOSED;
}

object fuse:2544 {
	name R1-12-47-1_fuse_71;
	phases "BN";
	from R1-12-47-1_node_340;
	to R1-12-47-1_node_241;
	current_limit 3000.0;
	status CLOSED;
}

object fuse:2549 {
	name R1-12-47-1_fuse_72;
	phases "BN";
	from R1-12-47-1_node_587;
	to R1-12-47-1_node_488;
	current_limit 3000.0;
	status CLOSED;
}

object fuse:2551 {
	name R1-12-47-1_fuse_73;
	phases "BN";
	from R1-12-47-1_node_128;
	to R1-12-47-1_node_587;
	current_limit 3000.0;
	status CLOSED;
}

object fuse:2561 {
	name R1-12-47-1_fuse_74;
	phases "AN";
	from R1-12-47-1_node_220;
	to R1-12-47-1_node_387;
	current_limit 3000.0;
	status CLOSED;
}

object fuse:2572 {
	name R1-12-47-1_fuse_75;
	phases "CN";
	from R1-12-47-1_node_220;
	to R1-12-47-1_node_540;
	current_limit 3000.0;
	status CLOSED;
}

object fuse:2580 {
	name R1-12-47-1_fuse_76;
	phases "CN";
	from R1-12-47-1_node_401;
	to R1-12-47-1_node_457;
	current_limit 3000.0;
	status CLOSED;
}

object fuse:2582 {
	name R1-12-47-1_fuse_77;
	phases "AN";
	from R1-12-47-1_node_162;
	to R1-12-47-1_node_166;
	current_limit 3000.0;
	status CLOSED;
}

object fuse:2585 {
	name R1-12-47-1_fuse_78;
	phases "BN";
	from R1-12-47-1_node_64;
	to R1-12-47-1_node_55;
	current_limit 3000.0;
	status CLOSED;
}

object fuse:2590 {
	name R1-12-47-1_fuse_79;
	phases "CN";
	from R1-12-47-1_node_563;
	to R1-12-47-1_node_460;
	current_limit 3000.0;
	status CLOSED;
}

object fuse:2593 {
	name R1-12-47-1_fuse_80;
	phases "CN";
	from R1-12-47-1_node_460;
	to R1-12-47-1_node_204;
	current_limit 3000.0;
	status CLOSED;
}

object fuse:2597 {
	name R1-12-47-1_fuse_81;
	phases "AN";
	from R1-12-47-1_node_46;
	to R1-12-47-1_node_594;
	current_limit 3000.0;
	status CLOSED;
}

object fuse:2602 {
	name R1-12-47-1_fuse_82;
	phases "AN";
	from R1-12-47-1_node_211;
	to R1-12-47-1_node_205;
	current_limit 3000.0;
	status CLOSED;
}

object fuse:2607 {
	name R1-12-47-1_fuse_83;
	phases "CN";
	from R1-12-47-1_node_302;
	to R1-12-47-1_node_591;
	current_limit 3000.0;
	status CLOSED;
}

object fuse:2610 {
	name R1-12-47-1_fuse_84;
	phases "AN";
	from R1-12-47-1_node_317;
	to R1-12-47-1_node_466;
	current_limit 3000.0;
	status CLOSED;
}

object fuse:2617 {
	name R1-12-47-1_fuse_85;
	phases "BN";
	from R1-12-47-1_node_202;
	to R1-12-47-1_node_398;
	current_limit 3000.0;
	status CLOSED;
}

object fuse:2621 {
	name R1-12-47-1_fuse_86;
	phases "CN";
	from R1-12-47-1_node_88;
	to R1-12-47-1_node_541;
	current_limit 3000.0;
	status CLOSED;
}

object fuse:2627 {
	name R1-12-47-1_fuse_87;
	phases "BN";
	from R1-12-47-1_node_296;
	to R1-12-47-1_node_483;
	current_limit 3000.0;
	status CLOSED;
}

object fuse:2631 {
	name R1-12-47-1_fuse_88;
	phases "CN";
	from R1-12-47-1_node_351;
	to R1-12-47-1_node_335;
	current_limit 3000.0;
	status CLOSED;
}

object fuse:2632 {
	name R1-12-47-1_fuse_89;
	phases "AN";
	from R1-12-47-1_node_38;
	to R1-12-47-1_node_427;
	current_limit 3000.0;
	status CLOSED;
}

object fuse:2635 {
	name R1-12-47-1_fuse_90;
	phases "AN";
	from R1-12-47-1_node_415;
	to R1-12-47-1_node_333;
	current_limit 3000.0;
	status CLOSED;
}

object fuse:2638 {
	name R1-12-47-1_fuse_91;
	phases "BN";
	from R1-12-47-1_node_397;
	to R1-12-47-1_node_222;
	current_limit 3000.0;
	status CLOSED;
}

object fuse:2644 {
	name R1-12-47-1_fuse_92;
	phases "CN";
	from R1-12-47-1_node_397;
	to R1-12-47-1_node_448;
	current_limit 3000.0;
	status CLOSED;
}

object fuse:2646 {
	name R1-12-47-1_fuse_93;
	phases "BN";
	from R1-12-47-1_node_397;
	to R1-12-47-1_node_313;
	current_limit 3000.0;
	status CLOSED;
}

object fuse:2648 {
	name R1-12-47-1_fuse_94;
	phases "AN";
	from R1-12-47-1_node_416;
	to R1-12-47-1_node_117;
	current_limit 3000.0;
	status CLOSED;
}

object fuse:2652 {
	name R1-12-47-1_fuse_95;
	phases "CN";
	from R1-12-47-1_node_29;
	to R1-12-47-1_node_511;
	current_limit 3000.0;
	status CLOSED;
}

object fuse:2653 {
	name R1-12-47-1_fuse_96;
	phases "CN";
	from R1-12-47-1_node_29;
	to R1-12-47-1_node_164;
	current_limit 3000.0;
	status CLOSED;
}

object fuse:2658 {
	name R1-12-47-1_fuse_97;
	phases "AN";
	from R1-12-47-1_node_106;
	to R1-12-47-1_node_78;
	current_limit 3000.0;
	status CLOSED;
}

object fuse:2665 {
	name R1-12-47-1_fuse_98;
	phases "ABCN";
	from R1-12-47-1_node_380;
	to R1-12-47-1_node_293;
	current_limit 3000.0;
	status CLOSED;
}

object fuse:2666 {
	name R1-12-47-1_fuse_99;
	phases "AN";
	from R1-12-47-1_node_293;
	to R1-12-47-1_node_155;
	current_limit 3000.0;
	status CLOSED;
}

object fuse:2669 {
	name R1-12-47-1_fuse_100;
	phases "AN";
	from R1-12-47-1_node_184;
	to R1-12-47-1_node_303;
	current_limit 3000.0;
	status CLOSED;
}

object fuse:2673 {
	name R1-12-47-1_fuse_101;
	phases "AN";
	from R1-12-47-1_node_124;
	to R1-12-47-1_node_409;
	current_limit 3000.0;
	status CLOSED;
}

object fuse:2675 {
	name R1-12-47-1_fuse_102;
	phases "AN";
	from R1-12-47-1_node_516;
	to R1-12-47-1_node_329;
	current_limit 3000.0;
	status CLOSED;
}

object fuse:2683 {
	name R1-12-47-1_fuse_103;
	phases "ABCN";
	from R1-12-47-1_node_192;
	to R1-12-47-1_node_68;
	current_limit 3000.0;
	status CLOSED;
}

object fuse:2688 {
	name R1-12-47-1_fuse_104;
	phases "BN";
	from R1-12-47-1_node_441;
	to R1-12-47-1_node_11;
	current_limit 3000.0;
	status CLOSED;
}

object fuse:2690 {
	name R1-12-47-1_fuse_105;
	phases "AN";
	from R1-12-47-1_node_499;
	to R1-12-47-1_node_274;
	current_limit 3000.0;
	status CLOSED;
}

object fuse:2701 {
	name R1-12-47-1_fuse_106;
	phases "ABCN";
	from R1-12-47-1_node_380;
	to R1-12-47-1_node_472;
	current_limit 3000.0;
	status CLOSED;
}

object fuse:2702 {
	name R1-12-47-1_fuse_107;
	phases "AN";
	from R1-12-47-1_node_36;
	to R1-12-47-1_node_517;
	current_limit 3000.0;
	status CLOSED;
}

object fuse:2710 {
	name R1-12-47-1_fuse_108;
	phases "BN";
	from R1-12-47-1_node_538;
	to R1-12-47-1_node_368;
	current_limit 3000.0;
	status CLOSED;
}

object fuse:2712 {
	name R1-12-47-1_fuse_109;
	phases "CN";
	from R1-12-47-1_node_598;
	to R1-12-47-1_node_492;
	current_limit 3000.0;
	status CLOSED;
}

object fuse:2713 {
	name R1-12-47-1_fuse_110;
	phases "AN";
	from R1-12-47-1_node_568;
	to R1-12-47-1_node_508;
	current_limit 3000.0;
	status CLOSED;
}

object fuse:2715 {
	name R1-12-47-1_fuse_111;
	phases "BN";
	from R1-12-47-1_node_138;
	to R1-12-47-1_node_484;
	current_limit 3000.0;
	status CLOSED;
}

object fuse:2722 {
	name R1-12-47-1_fuse_112;
	phases "AN";
	from R1-12-47-1_node_171;
	to R1-12-47-1_node_312;
	current_limit 3000.0;
	status CLOSED;
}

object fuse:2727 {
	name R1-12-47-1_fuse_113;
	phases "CN";
	from R1-12-47-1_node_567;
	to R1-12-47-1_node_281;
	current_limit 3000.0;
	status CLOSED;
}

object fuse:2728 {
	name R1-12-47-1_fuse_114;
	phases "AN";
	from R1-12-47-1_node_567;
	to R1-12-47-1_node_271;
	current_limit 3000.0;
	status CLOSED;
}

object fuse:2734 {
	name R1-12-47-1_fuse_115;
	phases "AN";
	from R1-12-47-1_node_534;
	to R1-12-47-1_node_266;
	current_limit 3000.0;
	status CLOSED;
}

object fuse:2736 {
	name R1-12-47-1_fuse_116;
	phases "CN";
	from R1-12-47-1_node_405;
	to R1-12-47-1_node_544;
	current_limit 3000.0;
	status CLOSED;
}

object fuse:2739 {
	name R1-12-47-1_fuse_117;
	phases "AN";
	from R1-12-47-1_node_171;
	to R1-12-47-1_node_561;
	current_limit 3000.0;
	status CLOSED;
}

object fuse:2740 {
	name R1-12-47-1_fuse_118;
	phases "AN";
	from R1-12-47-1_node_103;
	to R1-12-47-1_node_218;
	current_limit 3000.0;
	status CLOSED;
}

object fuse:2744 {
	name R1-12-47-1_fuse_119;
	phases "CN";
	from R1-12-47-1_node_424;
	to R1-12-47-1_node_403;
	current_limit 3000.0;
	status CLOSED;
}

object fuse:2750 {
	name R1-12-47-1_fuse_120;
	phases "AN";
	from R1-12-47-1_node_187;
	to R1-12-47-1_node_34;
	current_limit 3000.0;
	status CLOSED;
}

object fuse:2753 {
	name R1-12-47-1_fuse_121;
	phases "CN";
	from R1-12-47-1_node_57;
	to R1-12-47-1_node_603;
	current_limit 3000.0;
	status CLOSED;
}

object fuse:2759 {
	name R1-12-47-1_fuse_122;
	phases "CN";
	from R1-12-47-1_node_363;
	to R1-12-47-1_node_365;
	current_limit 3000.0;
	status CLOSED;
}


object line_configuration:2126 {
	conductor_A underground_line_conductor:43;
	conductor_N underground_line_conductor:43;
	spacing line_spacing:2125;
}

object line_configuration:2128 {
	conductor_B underground_line_conductor:43;
	conductor_N underground_line_conductor:43;
	spacing line_spacing:2127;
}

object line_configuration:2129 {
	conductor_A overhead_line_conductor:19;
	conductor_N overhead_line_conductor:19;
	spacing line_spacing:2125;
}

object line_configuration:2131 {
	conductor_A overhead_line_conductor:19;
	conductor_B overhead_line_conductor:19;
	conductor_C overhead_line_conductor:19;
	conductor_N overhead_line_conductor:19;
	spacing line_spacing:2130;
}

object line_configuration:2133 {
	conductor_C underground_line_conductor:43;
	conductor_N underground_line_conductor:43;
	spacing line_spacing:2132;
}

object line_configuration:2134 {
	conductor_C overhead_line_conductor:19;
	conductor_N overhead_line_conductor:19;
	spacing line_spacing:2132;
}

object line_configuration:2135 {
	conductor_A overhead_line_conductor:29;
	conductor_B overhead_line_conductor:29;
	conductor_C overhead_line_conductor:29;
	conductor_N overhead_line_conductor:29;
	spacing line_spacing:2130;
}

object line_configuration:2136 {
	conductor_A overhead_line_conductor:15;
	conductor_N overhead_line_conductor:15;
	spacing line_spacing:2125;
}

object line_configuration:2137 {
	conductor_C overhead_line_conductor:16;
	conductor_N overhead_line_conductor:16;
	spacing line_spacing:2132;
}

object line_configuration:2138 {
	conductor_A underground_line_conductor:44;
	conductor_B underground_line_conductor:44;
	conductor_C underground_line_conductor:44;
	conductor_N underground_line_conductor:44;
	spacing line_spacing:2130;
}

object line_configuration:2139 {
	conductor_A underground_line_conductor:48;
	conductor_B underground_line_conductor:48;
	conductor_C underground_line_conductor:48;
	conductor_N underground_line_conductor:48;
	spacing line_spacing:2130;
}

object line_configuration:2140 {
	conductor_A overhead_line_conductor:13;
	conductor_N overhead_line_conductor:13;
	spacing line_spacing:2125;
}

object line_configuration:2141 {
	conductor_B overhead_line_conductor:19;
	conductor_N overhead_line_conductor:19;
	spacing line_spacing:2127;
}

object line_configuration:2142 {
	conductor_A overhead_line_conductor:16;
	conductor_N overhead_line_conductor:16;
	spacing line_spacing:2125;
}

object line_configuration:2143 {
	conductor_C overhead_line_conductor:13;
	conductor_N overhead_line_conductor:13;
	spacing line_spacing:2132;
}

object line_configuration:2145 {
	conductor_A underground_line_conductor:43;
	conductor_C underground_line_conductor:43;
	conductor_N underground_line_conductor:43;
	spacing line_spacing:2144;
}

object line_configuration:2146 {
	conductor_A overhead_line_conductor:38;
	conductor_B overhead_line_conductor:38;
	conductor_C overhead_line_conductor:38;
	conductor_N overhead_line_conductor:38;
	spacing line_spacing:2130;
}

object line_configuration:2147 {
	conductor_B overhead_line_conductor:13;
	conductor_N overhead_line_conductor:13;
	spacing line_spacing:2127;
}

object line_configuration:2148 {
	conductor_B overhead_line_conductor:15;
	conductor_N overhead_line_conductor:15;
	spacing line_spacing:2127;
}


object line_spacing:2125 {
	distance_AN 51.6 in;
}

object line_spacing:2127 {
	distance_BN 51.6 in;
}

object line_spacing:2130 {
	distance_AB 57.6 in;
	distance_BC 57.6 in;
	distance_AC 57.6 in;
	distance_AN 51.6 in;
	distance_BN 51.6 in;
	distance_CN 51.6 in;
}

object line_spacing:2132 {
	distance_CN 51.6 in;
}

object line_spacing:2144 {
	distance_AC 57.6 in;
	distance_AN 51.6 in;
	distance_CN 51.6 in;
}


object load {
	name R1-12-47-1_load_1;
	parent R1-12-47-1_meter_1;
	phases "ABCN";
	nominal_voltage 7216.878;
	voltage_A 7216.878+0.0j;
	voltage_B -3608.439-6250.000j;
	voltage_C -3608.439+6250.000j;
	constant_power_A 7958.563+8857.390j;
	constant_power_B 32165.110+12556.873j;
	constant_power_C 43757.131+16911.772j;
	load_class "C";
}


object meter:645 {
	name R1-12-47-1_meter_1;
	phases "ABCN";
	nominal_voltage 7216.878;
	voltage_A 7216.878+0.0j;
	voltage_B -3608.439-6250.000j;
	voltage_C -3608.439+6250.000j;
}

// Meter at feeder
object meter:1920 {
	name R1-12-47-1_meter_2;
	phases "ABCN";
	nominal_voltage 7216.878;
	voltage_A 7216.878+0.0j;
	voltage_B -3608.439-6250.000j;
	voltage_C -3608.439+6250.000j;
}


object node:1159 {
	name R1-12-47-1_node_1;
	phases "CN";
	nominal_voltage 7216.878;
	voltage_C -3608.439+6250.000j;
}

object node:1162 {
	name R1-12-47-1_node_2;
	phases "BN";
	nominal_voltage 7216.878;
	voltage_B -3608.439-6250.000j;
}

object node:1161 {
	name R1-12-47-1_node_3;
	phases "AN";
	nominal_voltage 7216.878;
	voltage_A 7216.878+0.0j;
}

object node:1163 {
	name R1-12-47-1_node_4;
	phases "ABCN";
	nominal_voltage 7216.878;
	voltage_A 7216.878+0.0j;
	voltage_B -3608.439-6250.000j;
	voltage_C -3608.439+6250.000j;
}

object node:1166 {
	name R1-12-47-1_node_5;
	phases "ABCN";
	nominal_voltage 7216.878;
	voltage_A 7216.878+0.0j;
	voltage_B -3608.439-6250.000j;
	voltage_C -3608.439+6250.000j;
}

object node:1167 {
	name R1-12-47-1_node_6;
	phases "AN";
	nominal_voltage 7216.878;
	voltage_A 7216.878+0.0j;
}

object node:1168 {
	name R1-12-47-1_node_7;
	phases "AN";
	nominal_voltage 7216.878;
	voltage_A 7216.878+0.0j;
}

object node:1169 {
	name R1-12-47-1_node_8;
	phases "AN";
	nominal_voltage 7216.878;
	voltage_A 7216.878+0.0j;
}

object node:1170 {
	name R1-12-47-1_node_9;
	phases "CN";
	nominal_voltage 7216.878;
	voltage_C -3608.439+6250.000j;
}

object node:1171 {
	name R1-12-47-1_node_10;
	phases "CN";
	nominal_voltage 7216.878;
	voltage_C -3608.439+6250.000j;
}

object node:1172 {
	name R1-12-47-1_node_11;
	phases "BN";
	nominal_voltage 7216.878;
	voltage_B -3608.439-6250.000j;
}

object node:1173 {
	name R1-12-47-1_node_12;
	phases "ABCN";
	nominal_voltage 7216.878;
	voltage_A 7216.878+0.0j;
	voltage_B -3608.439-6250.000j;
	voltage_C -3608.439+6250.000j;
}

object node:1176 {
	name R1-12-47-1_node_13;
	phases "ABCN";
	nominal_voltage 7216.878;
	voltage_A 7216.878+0.0j;
	voltage_B -3608.439-6250.000j;
	voltage_C -3608.439+6250.000j;
}

object node:1177 {
	name R1-12-47-1_node_14;
	phases "CN";
	nominal_voltage 7216.878;
	voltage_C -3608.439+6250.000j;
}

object node:1178 {
	name R1-12-47-1_node_15;
	phases "AN";
	nominal_voltage 7216.878;
	voltage_A 7216.878+0.0j;
}

object node:1180 {
	name R1-12-47-1_node_16;
	phases "ABCN";
	nominal_voltage 7216.878;
	voltage_A 7216.878+0.0j;
	voltage_B -3608.439-6250.000j;
	voltage_C -3608.439+6250.000j;
}

object node:1181 {
	name R1-12-47-1_node_17;
	phases "AN";
	nominal_voltage 7216.878;
	voltage_A 7216.878+0.0j;
}

object node:1182 {
	name R1-12-47-1_node_18;
	phases "BN";
	nominal_voltage 7216.878;
	voltage_B -3608.439-6250.000j;
}

object node:1184 {
	name R1-12-47-1_node_19;
	phases "ABCN";
	nominal_voltage 7216.878;
	voltage_A 7216.878+0.0j;
	voltage_B -3608.439-6250.000j;
	voltage_C -3608.439+6250.000j;
}

object node:1185 {
	name R1-12-47-1_node_20;
	phases "BN";
	nominal_voltage 7216.878;
	voltage_B -3608.439-6250.000j;
}

object node:1186 {
	name R1-12-47-1_node_21;
	phases "ABCN";
	nominal_voltage 7216.878;
	voltage_A 7216.878+0.0j;
	voltage_B -3608.439-6250.000j;
	voltage_C -3608.439+6250.000j;
}

object node:1187 {
	name R1-12-47-1_node_22;
	phases "CN";
	nominal_voltage 7216.878;
	voltage_C -3608.439+6250.000j;
}

object node:1188 {
	name R1-12-47-1_node_23;
	phases "AN";
	nominal_voltage 7216.878;
	voltage_A 7216.878+0.0j;
}

object node:1189 {
	name R1-12-47-1_node_24;
	phases "ABCN";
	nominal_voltage 7216.878;
	voltage_A 7216.878+0.0j;
	voltage_B -3608.439-6250.000j;
	voltage_C -3608.439+6250.000j;
}

object node:1191 {
	name R1-12-47-1_node_25;
	phases "AN";
	nominal_voltage 7216.878;
	voltage_A 7216.878+0.0j;
}

object node:1192 {
	name R1-12-47-1_node_26;
	phases "ABCN";
	nominal_voltage 7216.878;
	voltage_A 7216.878+0.0j;
	voltage_B -3608.439-6250.000j;
	voltage_C -3608.439+6250.000j;
}

object node:1193 {
	name R1-12-47-1_node_27;
	phases "AN";
	nominal_voltage 7216.878;
	voltage_A 7216.878+0.0j;
}

object node:1194 {
	name R1-12-47-1_node_28;
	phases "ABCN";
	nominal_voltage 7216.878;
	voltage_A 7216.878+0.0j;
	voltage_B -3608.439-6250.000j;
	voltage_C -3608.439+6250.000j;
}

object node:1195 {
	name R1-12-47-1_node_29;
	phases "CN";
	nominal_voltage 7216.878;
	voltage_C -3608.439+6250.000j;
}

object node:1196 {
	name R1-12-47-1_node_30;
	phases "AN";
	nominal_voltage 7216.878;
	voltage_A 7216.878+0.0j;
}

object node:1197 {
	name R1-12-47-1_node_31;
	phases "ABCN";
	nominal_voltage 7216.878;
	voltage_A 7216.878+0.0j;
	voltage_B -3608.439-6250.000j;
	voltage_C -3608.439+6250.000j;
}

object node:1199 {
	name R1-12-47-1_node_32;
	phases "AN";
	nominal_voltage 7216.878;
	voltage_A 7216.878+0.0j;
}

object node:1200 {
	name R1-12-47-1_node_33;
	phases "BN";
	nominal_voltage 7216.878;
	voltage_B -3608.439-6250.000j;
}

object node:1202 {
	name R1-12-47-1_node_34;
	phases "AN";
	nominal_voltage 7216.878;
	voltage_A 7216.878+0.0j;
}

object node:1205 {
	name R1-12-47-1_node_35;
	phases "CN";
	nominal_voltage 7216.878;
	voltage_C -3608.439+6250.000j;
}

object node:1204 {
	name R1-12-47-1_node_36;
	phases "ABCN";
	nominal_voltage 7216.878;
	voltage_A 7216.878+0.0j;
	voltage_B -3608.439-6250.000j;
	voltage_C -3608.439+6250.000j;
}

object node:1203 {
	name R1-12-47-1_node_37;
	phases "AN";
	nominal_voltage 7216.878;