// $Id: R1-12.47-4.glm 1132 2008-11-18 22:36:10Z dchassin $ 
//*********************************************

clock { 
	 timezone PST+8PDT;
	 timestamp '2000-01-01 0:00:00';
}

//*********************************************
// modules
module powerflow;


object fuse:570 {
	name R1-12-47-4_fuse_1;
	phases "ABCN";
	from node:208;
	to node:370;
	current_limit 1500.0;
	status CLOSED;
}

object fuse:581 {
	name R1-12-47-4_fuse_2;
	phases "AN";
	from node:219;
	to node:512;
	current_limit 1500.0;
	status CLOSED;
}

object fuse:582 {
	name R1-12-47-4_fuse_3;
	phases "AN";
	from node:222;
	to node:515;
	current_limit 1500.0;
	status CLOSED;
}

object fuse:583 {
	name R1-12-47-4_fuse_4;
	phases "AN";
	from node:225;
	to node:517;
	current_limit 1500.0;
	status CLOSED;
}

object fuse:584 {
	name R1-12-47-4_fuse_5;
	phases "CN";
	from node:236;
	to node:518;
	current_limit 1500.0;
	status CLOSED;
}

object fuse:585 {
	name R1-12-47-4_fuse_6;
	phases "CN";
	from node:239;
	to node:519;
	current_limit 1500.0;
	status CLOSED;
}

object fuse:586 {
	name R1-12-47-4_fuse_7;
	phases "CN";
	from node:241;
	to node:520;
	current_limit 1500.0;
	status CLOSED;
}

object fuse:587 {
	name R1-12-47-4_fuse_8;
	phases "CN";
	from node:248;
	to node:521;
	current_limit 1500.0;
	status CLOSED;
}

object fuse:588 {
	name R1-12-47-4_fuse_9;
	phases "ABCN";
	from node:252;
	to node:523;
	current_limit 1500.0;
	status CLOSED;
}

object fuse:589 {
	name R1-12-47-4_fuse_10;
	phases "ABCN";
	from node:253;
	to node:524;
	current_limit 1500.0;
	status CLOSED;
}

object fuse:590 {
	name R1-12-47-4_fuse_11;
	phases "ABCN";
	from node:255;
	to node:527;
	current_limit 1500.0;
	status CLOSED;
}

object fuse:591 {
	name R1-12-47-4_fuse_12;
	phases "ABCN";
	from node:257;
	to node:528;
	current_limit 1500.0;
	status CLOSED;
}

object fuse:592 {
	name R1-12-47-4_fuse_13;
	phases "ABCN";
	from node:259;
	to node:532;
	current_limit 1500.0;
	status CLOSED;
}

object fuse:593 {
	name R1-12-47-4_fuse_14;
	phases "ABCN";
	from node:261;
	to node:537;
	current_limit 1500.0;
	status CLOSED;
}

object fuse:594 {
	name R1-12-47-4_fuse_15;
	phases "ABCN";
	from node:262;
	to node:541;
	current_limit 1500.0;
	status CLOSED;
}

object fuse:595 {
	name R1-12-47-4_fuse_16;
	phases "AN";
	from node:217;
	to node:545;
	current_limit 1500.0;
	status CLOSED;
}

object fuse:647 {
	name R1-12-47-4_fuse_17;
	phases "AN";
	from node:228;
	to node:485;
	current_limit 1500.0;
	status CLOSED;
}

object fuse:648 {
	name R1-12-47-4_fuse_18;
	phases "CN";
	from node:228;
	to node:493;
	current_limit 1500.0;
	status CLOSED;
}

object fuse:649 {
	name R1-12-47-4_fuse_19;
	phases "ABCN";
	from node:228;
	to node:499;
	current_limit 1500.0;
	status CLOSED;
}

object fuse:651 {
	name R1-12-47-4_fuse_20;
	phases "ABCN";
	from node:254;
	to node:501;
	current_limit 1500.0;
	status CLOSED;
}

object fuse:708 {
	name R1-12-47-4_fuse_21;
	phases "ABCN";
	from node:256;
	to node:396;
	current_limit 1500.0;
	status CLOSED;
}

object fuse:709 {
	name R1-12-47-4_fuse_22;
	phases "ABCN";
	from node:282;
	to node:403;
	current_limit 1500.0;
	status CLOSED;
}

object fuse:710 {
	name R1-12-47-4_fuse_23;
	phases "ABCN";
	from node:285;
	to node:405;
	current_limit 1500.0;
	status CLOSED;
}

object fuse:711 {
	name R1-12-47-4_fuse_24;
	phases "ABCN";
	from node:289;
	to node:407;
	current_limit 1500.0;
	status CLOSED;
}

object fuse:712 {
	name R1-12-47-4_fuse_25;
	phases "ABCN";
	from node:291;
	to node:411;
	current_limit 1500.0;
	status CLOSED;
}

object fuse:724 {
	name R1-12-47-4_fuse_26;
	phases "ABCN";
	from node:371;
	to node:271;
	current_limit 1500.0;
	status CLOSED;
}

object fuse:725 {
	name R1-12-47-4_fuse_27;
	phases "ABCN";
	from node:376;
	to node:272;
	current_limit 1500.0;
	status CLOSED;
}

object fuse:733 {
	name R1-12-47-4_fuse_28;
	phases "ABCN";
	from node:377;
	to node:275;
	current_limit 1500.0;
	status CLOSED;
}

object fuse:734 {
	name R1-12-47-4_fuse_29;
	phases "ABCN";
	from node:382;
	to node:274;
	current_limit 1500.0;
	status CLOSED;
}

object fuse:789 {
	name R1-12-47-4_fuse_30;
	phases "ABCN";
	from node:318;
	to node:439;
	current_limit 1500.0;
	status CLOSED;
}

object fuse:790 {
	name R1-12-47-4_fuse_31;
	phases "ABCN";
	from node:338;
	to node:440;
	current_limit 1500.0;
	status CLOSED;
}

object fuse:791 {
	name R1-12-47-4_fuse_32;
	phases "ABCN";
	from node:342;
	to node:442;
	current_limit 1500.0;
	status CLOSED;
}

object fuse:792 {
	name R1-12-47-4_fuse_33;
	phases "ABCN";
	from node:309;
	to node:443;
	current_limit 1500.0;
	status CLOSED;
}

object fuse:793 {
	name R1-12-47-4_fuse_34;
	phases "ABCN";
	from node:311;
	to node:446;
	current_limit 1500.0;
	status CLOSED;
}

object fuse:794 {
	name R1-12-47-4_fuse_35;
	phases "ABCN";
	from node:313;
	to node:447;
	current_limit 1500.0;
	status CLOSED;
}

object fuse:795 {
	name R1-12-47-4_fuse_36;
	phases "ABCN";
	from node:324;
	to node:450;
	current_limit 1500.0;
	status CLOSED;
}

object fuse:817 {
	name R1-12-47-4_fuse_37;
	phases "ABCN";
	from node:418;
	to node:305;
	current_limit 1500.0;
	status CLOSED;
}

object fuse:818 {
	name R1-12-47-4_fuse_38;
	phases "ABCN";
	from node:423;
	to node:304;
	current_limit 1500.0;
	status CLOSED;
}

object fuse:847 {
	name R1-12-47-4_fuse_39;
	phases "ABCN";
	from node:351;
	to node:457;
	current_limit 1500.0;
	status CLOSED;
}

object fuse:849 {
	name R1-12-47-4_fuse_40;
	phases "ABCN";
	from node:299;
	to node:455;
	current_limit 1500.0;
	status CLOSED;
}

object fuse:850 {
	name R1-12-47-4_fuse_41;
	phases "ABCN";
	from node:355;
	to node:470;
	current_limit 1500.0;
	status CLOSED;
}

object fuse:851 {
	name R1-12-47-4_fuse_42;
	phases "ABCN";
	from node:357;
	to node:471;
	current_limit 1500.0;
	status CLOSED;
}

object fuse:852 {
	name R1-12-47-4_fuse_43;
	phases "ABCN";
	from node:360;
	to node:473;
	current_limit 1500.0;
	status CLOSED;
}

object fuse:853 {
	name R1-12-47-4_fuse_44;
	phases "ABCN";
	from node:362;
	to node:474;
	current_limit 1500.0;
	status CLOSED;
}


object line_configuration:555 {
	conductor_A underground_line_conductor:49;
	conductor_B underground_line_conductor:49;
	conductor_C underground_line_conductor:49;
	conductor_N underground_line_conductor:49;
	spacing line_spacing:554;
}

object line_configuration:556 {
	conductor_A underground_line_conductor:46;
	conductor_B underground_line_conductor:46;
	conductor_C underground_line_conductor:46;
	conductor_N underground_line_conductor:46;
	spacing line_spacing:554;
}

object line_configuration:557 {
	conductor_A underground_line_conductor:43;
	conductor_B underground_line_conductor:43;
	conductor_C underground_line_conductor:43;
	conductor_N underground_line_conductor:43;
	spacing line_spacing:554;
}

object line_configuration:559 {
	conductor_A underground_line_conductor:43;
	conductor_N underground_line_conductor:43;
	spacing line_spacing:558;
}

object line_configuration:561 {
	conductor_C underground_line_conductor:43;
	conductor_N underground_line_conductor:43;
	spacing line_spacing:560;
}

object line_configuration:562 {
	conductor_A underground_line_conductor:46;
	conductor_N underground_line_conductor:46;
	spacing line_spacing:558;
}

object line_configuration:563 {
	conductor_C underground_line_conductor:46;
	conductor_N underground_line_conductor:46;
	spacing line_spacing:560;
}


object line_spacing:554 {
	distance_AB 52.0 in;
	distance_BC 52.0 in;
	distance_AC 52.0 in;
	distance_AN 72.0 in;
	distance_BN 72.0 in;
	distance_CN 72.0 in;
}

object line_spacing:558 {
	distance_AN 72.0 in;
}

object line_spacing:560 {
	distance_CN 72.0 in;
}


object load {
	name R1-12-47-4_load_1;
	parent R1-12-47-4_meter_1;
	phases "ABCN";
	nominal_voltage 6928.203;
	voltage_A 6928.203+0.0j;
	voltage_B -3464.101-6000.000j;
	voltage_C -3464.101+6000.000j;
	constant_power_A 17027.790+11009.606j;
	constant_power_B 21000.135+13611.774j;
	constant_power_C 17507.499+11303.427j;
	load_class "C";
}

object load {
	name R1-12-47-4_load_2;
	parent R1-12-47-4_meter_2;
	phases "ABCN";
	nominal_voltage 6928.203;
	voltage_A 6928.203+0.0j;
	voltage_B -3464.101-6000.000j;
	voltage_C -3464.101+6000.000j;
	constant_power_A 72865.675+47112.534j;
	constant_power_B 89864.213+58247.786j;
	constant_power_C 74918.455+48369.861j;
	load_class "C";
}

object load {
	name R1-12-47-4_load_3;
	parent R1-12-47-4_meter_3;
	phases "ABCN";
	nominal_voltage 6928.203;
	voltage_A 6928.203+0.0j;
	voltage_B -3464.101-6000.000j;
	voltage_C -3464.101+6000.000j;
	constant_power_A 49962.928+32304.376j;
	constant_power_B 61618.577+39939.656j;
	constant_power_C 51370.490+33166.507j;
	load_class "C";
}

object load {
	name R1-12-47-4_load_4;
	parent R1-12-47-4_meter_4;
	phases "ABCN";
	nominal_voltage 6928.203;
	voltage_A 6928.203+0.0j;
	voltage_B -3464.101-6000.000j;
	voltage_C -3464.101+6000.000j;
	constant_power_A 35013.855+22638.800j;
	constant_power_B 43182.095+27989.579j;
	constant_power_C 36000.269+23242.978j;
	load_class "C";
}

object load {
	name R1-12-47-4_load_5;
	parent R1-12-47-4_meter_5;
	phases "ABCN";
	nominal_voltage 6928.203;
	voltage_A 6928.203+0.0j;
	voltage_B -3464.101-6000.000j;
	voltage_C -3464.101+6000.000j;
	constant_power_A 28836.674+18644.839j;
	constant_power_B 35563.865+23051.628j;
	constant_power_C 29649.064+19142.428j;
	load_class "C";
}

object load {
	name R1-12-47-4_load_6;
	parent R1-12-47-4_meter_6;
	phases "ABCN";
	nominal_voltage 6928.203;
	voltage_A 6928.203+0.0j;
	voltage_B -3464.101-6000.000j;
	voltage_C -3464.101+6000.000j;
	constant_power_A 29787.576+19259.661j;
	constant_power_B 36736.599+23811.766j;
	constant_power_C 30626.755+19773.658j;
	load_class "C";
}

object load {
	name R1-12-47-4_load_7;
	parent R1-12-47-4_meter_7;
	phases "ABCN";
	nominal_voltage 6928.203;
	voltage_A 6928.203+0.0j;
	voltage_B -3464.101-6000.000j;
	voltage_C -3464.101+6000.000j;
	constant_power_A 64484.464+41693.520j;
	constant_power_B 79527.783+51547.965j;
	constant_power_C 66301.128+42806.226j;
	load_class "C";
}

object load {
	name R1-12-47-4_load_8;
	parent R1-12-47-4_meter_8;
	phases "ABCN";
	nominal_voltage 6928.203;
	voltage_A 6928.203+0.0j;
	voltage_B -3464.101-6000.000j;
	voltage_C -3464.101+6000.000j;
	constant_power_A 24399.128+15775.669j;
	constant_power_B 30091.102+19504.317j;
	constant_power_C 25086.503+16196.686j;
	load_class "C";
}

object load {
	name R1-12-47-4_load_9;
	parent R1-12-47-4_meter_9;
	phases "ABCN";
	nominal_voltage 6928.203;
	voltage_A 6928.203+0.0j;
	voltage_B -3464.101-6000.000j;
	voltage_C -3464.101+6000.000j;
	constant_power_A 52815.636+34148.842j;
	constant_power_B 65136.782+42220.070j;
	constant_power_C 54303.564+35060.198j;
	load_class "C";
}

object load {
	name R1-12-47-4_load_10;
	parent R1-12-47-4_meter_10;
	phases "ABCN";
	nominal_voltage 6928.203;
	voltage_A 6928.203+0.0j;
	voltage_B -3464.101-6000.000j;
	voltage_C -3464.101+6000.000j;
	constant_power_A 39119.690+25293.497j;
	constant_power_B 48245.764+31271.725j;
	constant_power_C 40221.775+25968.523j;
	load_class "C";
}

object load {
	name R1-12-47-4_load_11;
	parent R1-12-47-4_meter_11;
	phases "ABCN";
	nominal_voltage 6928.203;
	voltage_A 6928.203+0.0j;
	voltage_B -3464.101-6000.000j;
	voltage_C -3464.101+6000.000j;
	constant_power_A 46970.165+30369.354j;
	constant_power_B 57927.645+37547.283j;
	constant_power_C 48293.414+31179.844j;
	load_class "C";
}

object load {
	name R1-12-47-4_load_12;
	parent R1-12-47-4_meter_12;
	phases "ABCN";
	nominal_voltage 6928.203;
	voltage_A 6928.203+0.0j;
	voltage_B -3464.101-6000.000j;
	voltage_C -3464.101+6000.000j;
	constant_power_A 40129.563+25946.447j;
	constant_power_B 49491.227+32079.003j;
	constant_power_C 41260.098+26638.900j;
	load_class "C";
}


object meter:99 {
	name R1-12-47-4_meter_1;
	phases "ABCN";
	nominal_voltage 6928.203;
	voltage_A 6928.203+0.0j;
	voltage_B -3464.101-6000.000j;
	voltage_C -3464.101+6000.000j;
}

object meter:101 {
	name R1-12-47-4_meter_2;
	phases "ABCN";
	nominal_voltage 6928.203;
	voltage_A 6928.203+0.0j;
	voltage_B -3464.101-6000.000j;
	voltage_C -3464.101+6000.000j;
}

object meter:103 {
	name R1-12-47-4_meter_3;
	phases "ABCN";
	nominal_voltage 6928.203;
	voltage_A 6928.203+0.0j;
	voltage_B -3464.101-6000.000j;
	voltage_C -3464.101+6000.000j;
}

object meter:162 {
	name R1-12-47-4_meter_4;
	phases "ABCN";
	nominal_voltage 6928.203;
	voltage_A 6928.203+0.0j;
	voltage_B -3464.101-6000.000j;
	voltage_C -3464.101+6000.000j;
}

object meter:182 {
	name R1-12-47-4_meter_5;
	phases "ABCN";
	nominal_voltage 6928.203;
	voltage_A 6928.203+0.0j;
	voltage_B -3464.101-6000.000j;
	voltage_C -3464.101+6000.000j;
}

object meter:184 {
	name R1-12-47-4_meter_6;
	phases "ABCN";
	nominal_voltage 6928.203;
	voltage_A 6928.203+0.0j;
	voltage_B -3464.101-6000.000j;
	voltage_C -3464.101+6000.000j;
}

object meter:186 {
	name R1-12-47-4_meter_7;
	phases "ABCN";
	nominal_voltage 6928.203;
	voltage_A 6928.203+0.0j;
	voltage_B -3464.101-6000.000j;
	voltage_C -3464.101+6000.000j;
}

object meter:188 {
	name R1-12-47-4_meter_8;
	phases "ABCN";
	nominal_voltage 6928.203;
	voltage_A 6928.203+0.0j;
	voltage_B -3464.101-6000.000j;
	voltage_C -3464.101+6000.000j;
}

object meter:190 {
	name R1-12-47-4_meter_9;
	phases "ABCN";
	nominal_voltage 6928.203;
	voltage_A 6928.203+0.0j;
	voltage_B -3464.101-6000.000j;
	voltage_C -3464.101+6000.000j;
}

object meter:192 {
	name R1-12-47-4_meter_10;
	phases "ABCN";
	nominal_voltage 6928.203;
	voltage_A 6928.203+0.0j;
	voltage_B -3464.101-6000.000j;
	voltage_C -3464.101+6000.000j;
}

object meter:203 {
	name R1-12-47-4_meter_11;
	phases "ABCN";
	nominal_voltage 6928.203;
	voltage_A 6928.203+0.0j;
	voltage_B -3464.101-6000.000j;
	voltage_C -3464.101+6000.000j;
}

object meter:205 {
	name R1-12-47-4_meter_12;
	phases "ABCN";
	nominal_voltage 6928.203;
	voltage_A 6928.203+0.0j;
	voltage_B -3464.101-6000.000j;
	voltage_C -3464.101+6000.000j;
}

// Meter at feeder
object meter:206 {
	name R1-12-47-4_meter_13;
	phases "ABCN";
	nominal_voltage 6928.203;
	voltage_A 6928.203+0.0j;
	voltage_B -3464.101-6000.000j;
	voltage_C -3464.101+6000.000j;
}


object node:207 {
	name R1-12-47-4_node_1;
	phases "ABCN";
	nominal_voltage 6928.203;
	voltage_A 6928.203+0.0j;
	voltage_B -3464.101-6000.000j;
	voltage_C -3464.101+6000.000j;
}

object node:208 {
	name R1-12-47-4_node_2;
	phases "ABCN";
	nominal_voltage 6928.203;
	voltage_A 6928.203+0.0j;
	voltage_B -3464.101-6000.000j;
	voltage_C -3464.101+6000.000j;
}

object node:209 {
	name R1-12-47-4_node_3;
	phases "ABCN";
	nominal_voltage 6928.203;
	voltage_A 6928.203+0.0j;
	voltage_B -3464.101-6000.000j;
	voltage_C -3464.101+6000.000j;
}

object node:210 {
	name R1-12-47-4_node_4;
	phases "ABCN";
	nominal_voltage 6928.203;
	voltage_A 6928.203+0.0j;
	voltage_B -3464.101-6000.000j;
	voltage_C -3464.101+6000.000j;
}

object node:211 {
	name R1-12-47-4_node_5;
	phases "AN";
	nominal_voltage 6928.203;
	voltage_A 6928.203+0.0j;
}

object node:212 {
	name R1-12-47-4_node_6;
	phases "AN";
	nominal_voltage 6928.203;
	voltage_A 6928.203+0.0j;
}

object node:213 {
	name R1-12-47-4_node_7;
	phases "AN";
	nominal_voltage 6928.203;
	voltage_A 6928.203+0.0j;
}

object node:214 {
	name R1-12-47-4_node_8;
	phases "AN";
	nominal_voltage 6928.203;
	voltage_A 6928.203+0.0j;
}

object node:215 {
	name R1-12-47-4_node_9;
	phases "AN";
	nominal_voltage 6928.203;
	voltage_A 6928.203+0.0j;
}

object node:216 {
	name R1-12-47-4_node_10;
	phases "AN";
	nominal_voltage 6928.203;
	voltage_A 6928.203+0.0j;
}

object node:217 {
	name R1-12-47-4_node_11;
	phases "AN";
	nominal_voltage 6928.203;
	voltage_A 6928.203+0.0j;
}

object node:218 {
	name R1-12-47-4_node_12;
	phases "AN";
	nominal_voltage 6928.203;
	voltage_A 6928.203+0.0j;
}

object node:219 {
	name R1-12-47-4_node_13;
	phases "AN";
	nominal_voltage 6928.203;
	voltage_A 6928.203+0.0j;
}

object node:220 {
	name R1-12-47-4_node_14;
	phases "AN";
	nominal_voltage 6928.203;
	voltage_A 6928.203+0.0j;
}

object node:221 {
	name R1-12-47-4_node_15;
	phases "AN";
	nominal_voltage 6928.203;
	voltage_A 6928.203+0.0j;
}

object node:222 {
	name R1-12-47-4_node_16;
	phases "AN";
	nominal_voltage 6928.203;
	voltage_A 6928.203+0.0j;
}

object node:223 {
	name R1-12-47-4_node_17;
	phases "AN";
	nominal_voltage 6928.203;
	voltage_A 6928.203+0.0j;
}

object node:224 {
	name R1-12-47-4_node_18;
	phases "AN";
	nominal_voltage 6928.203;
	voltage_A 6928.203+0.0j;
}

object node:225 {
	name R1-12-47-4_node_19;
	phases "AN";
	nominal_voltage 6928.203;
	voltage_A 6928.203+0.0j;
}

object node:226 {
	name R1-12-47-4_node_20;
	phases "AN";
	nominal_voltage 6928.203;
	voltage_A 6928.203+0.0j;
}

object node:227 {
	name R1-12-47-4_node_21;
	phases "AN";
	nominal_voltage 6928.203;
	voltage_A 6928.203+0.0j;
}

object node:228 {
	name R1-12-47-4_node_22;
	phases "ABCN";
	nominal_voltage 6928.203;
	voltage_A 6928.203+0.0j;
	voltage_B -3464.101-6000.000j;
	voltage_C -3464.101+6000.000j;
}

object node:229 {
	name R1-12-47-4_node_23;
	phases "CN";
	nominal_voltage 6928.203;
	voltage_C -3464.101+6000.000j;
}

object node:230 {
	name R1-12-47-4_node_24;
	phases "CN";
	nominal_voltage 6928.203;
	voltage_C -3464.101+6000.000j;
}

object node:231 {
	name R1-12-47-4_node_25;
	phases "CN";
	nominal_voltage 6928.203;
	voltage_C -3464.101+6000.000j;
}

object node:232 {
	name R1-12-47-4_node_26;
	phases "CN";
	nominal_voltage 6928.203;
	voltage_C -3464.101+6000.000j;
}

object node:233 {
	name R1-12-47-4_node_27;
	phases "CN";
	nominal_voltage 6928.203;
	voltage_C -3464.101+6000.000j;
}

object node:234 {
	name R1-12-47-4_node_28;
	phases "CN";
	nominal_voltage 6928.203;
	voltage_C -3464.101+6000.000j;
}

object node:235 {
	name R1-12-47-4_node_29;
	phases "CN";
	nominal_voltage 6928.203;
	voltage_C -3464.101+6000.000j;
}

object node:236 {
	name R1-12-47-4_node_30;
	phases "CN";
	nominal_voltage 6928.203;
	voltage_C -3464.101+6000.000j;
}

object node:237 {
	name R1-12-47-4_node_31;
	phases "CN";
	nominal_voltage 6928.203;
	voltage_C -3464.101+6000.000j;
}

object node:238 {
	name R1-12-47-4_node_32;
	phases "CN";
	nominal_voltage 6928.203;
	voltage_C -3464.101+6000.000j;
}

object node:239 {
	name R1-12-47-4_node_33;
	phases "CN";
	nominal_voltage 6928.203;
	voltage_C -3464.101+6000.000j;
}

object node:240 {
	name R1-12-47-4_node_34;
	phases "CN";
	nominal_voltage 6928.203;
	voltage_C -3464.101+6000.000j;
}

object node:241 {
	name R1-12-47-4_node_35;
	phases "CN";
	nominal_voltage 6928.203;
	voltage_C -3464.101+6000.000j;
}

object node:242 {
	name R1-12-47-4_node_36;
	phases "CN";
	nominal_voltage 6928.203;
	voltage_C -3464.101+6000.000j;
}

object node:243 {
	name R1-12-47-4_node_37;
	phases "CN";
	nominal_voltage 6928.203;
	voltage_C -3464.101+6000.000j;
}

object node:244 {
	name R1-12-47-4_node_38;
	phases "CN";
	nominal_voltage 6928.203;
	voltage_C -3464.101+6000.000j;
}

object node:245 {
	name R1-12-47-4_node_39;
	phases "CN";
	nominal_voltage 6928.203;
	voltage_C -3464.101+6000.000j;
}

object node:246 {
	name R1-12-47-4_node_40;
	phases "CN";
	nominal_voltage 6928.203;
	voltage_C -3464.101+6000.000j;
}

object node:247 {
	name R1-12-47-4_node_41;
	phases "CN";
	nominal_voltage 6928.203;
	voltage_C -3464.101+6000.000j;
}

object node:248 {
	name R1-12-47-4_node_42;
	phases "CN";
	nominal_voltage 6928.203;
	voltage_C -3464.101+6000.000j;
}

object node:249 {
	name R1-12-47-4_node_43;
	phases "CN";
	nominal_voltage 6928.203;
	voltage_C -3464.101+6000.000j;
}

object node:250 {
	name R1-12-47-4_node_44;
	phases "CN";
	nominal_voltage 6928.203;
	voltage_C -3464.101+6000.000j;
}

object node:251 {
	name R1-12-47-4_node_45;
	phases "CN";
	nominal_voltage 6928.203;
	voltage_C -3464.101+6000.000j;
}

object node:252 {
	name R1-12-47-4_node_46;
	phases "ABCN";
	nominal_voltage 6928.203;
	voltage_A 6928.203+0.0j;
	voltage_B -3464.101-6000.000j;
	voltage_C -3464.101+6000.000j;
}

object node:253 {
	name R1-12-47-4_node_47;
	phases "ABCN";
	nominal_voltage 6928.203;
	voltage_A 6928.203+0.0j;
	voltage_B -3464.101-6000.000j;
	voltage_C -3464.101+6000.000j;
}

object node:254 {
	name R1-12-47-4_node_48;
	phases "ABCN";
	nominal_voltage 6928.203;
	voltage_A 6928.203+0.0j;
	voltage_B -3464.101-6000.000j;
	voltage_C -3464.101+6000.000j;
}

object node:255 {
	name R1-12-47-4_node_49;
	phases "ABCN";
	nominal_voltage 6928.203;
	voltage_A 6928.203+0.0j;
	voltage_B -3464.101-6000.000j;
	voltage_C -3464.101+6000.000j;
}

object node:256 {
	name R1-12-47-4_node_50;
	phases "ABCN";
	nominal_voltage 6928.203;
	voltage_A 6928.203+0.0j;
	voltage_B -3464.101-6000.000j;
	voltage_C -3464.101+6000.000j;
}

object node:257 {
	name R1-12-47-4_node_51;
	phases "ABCN";
	nominal_voltage 6928.203;
	voltage_A 6928.203+0.0j;
	voltage_B -3464.101-6000.000j;
	voltage_C -3464.101+6000.000j;
}

object node:258 {
	name R1-12-47-4_node_52;
	phases "ABCN";
	nominal_voltage 6928.203;
	voltage_A 6928.203+0.0j;
	voltage_B -3464.101-6000.000j;
	voltage_C -3464.101+6000.000j;
}

object node:259 {
	name R1-12-47-4_node_53;
	phases "ABCN";
	nominal_voltage 6928.203;
	voltage_A 6928.203+0.0j;
	voltage_B -3464.101-6000.000j;
	voltage_C -3464.101+6000.000j;
}

object node:260 {
	name R1-12-47-4_node_54;
	phases "ABCN";
	nominal_voltage 6928.203;
	voltage_A 6928.203+0.0j;
	voltage_B -3464.101-6000.000j;
	voltage_C -3464.101+6000.000j;
}

object node:261 {
	name R1-12-47-4_node_55;
	phases "ABCN";
	nominal_voltage 6928.203;
	voltage_A 6928.203+0.0j;
	voltage_B -3464.101-6000.000j;
	voltage_C -3464.101+6000.000j;
}

object node:262 {
	name R1-12-47-4_node_56;
	phases "ABCN";
	nominal_voltage 6928.203;
	voltage_A 6928.203+0.0j;
	voltage_B -3464.101-6000.000j;
	voltage_C -3464.101+6000.000j;
}

object node:263 {
	name R1-12-47-4_node_57;
	phases "ABCN";
	nominal_voltage 6928.203;
	voltage_A 6928.203+0.0j;
	voltage_B -3464.101-6000.000j;
	voltage_C -3464.101+6000.000j;
}

object node:264 {
	name R1-12-47-4_node_58;
	phases "ABCN";
	nominal_voltage 6928.203;
	voltage_A 6928.203+0.0j;
	voltage_B -3464.101-6000.000j;
	voltage_C -3464.101+6000.000j;
}

object node:265 {
	name R1-12-47-4_node_59;
	phases "ABCN";
	nominal_voltage 6928.203;
	voltage_A 6928.203+0.0j;
	voltage_B -3464.101-6000.000j;
	voltage_C -3464.101+6000.000j;
}

object node:266 {
	name R1-12-47-4_node_60;
	phases "ABCN";
	nominal_voltage 6928.203;
	voltage_A 6928.203+0.0j;
	voltage_B -3464.101-6000.000j;
	voltage_C -3464.101+6000.000j;
}

object node:267 {
	name R1-12-47-4_node_61;
	phases "ABCN";
	nominal_voltage 6928.203;
	voltage_A 6928.203+0.0j;
	voltage_B -3464.101-6000.000j;
	voltage_C -3464.101+6000.000j;
}

object node:268 {
	name R1-12-47-4_node_62;
	phases "ABCN";
	nominal_voltage 6928.203;
	voltage_A 6928.203+0.0j;
	voltage_B -3464.101-6000.000j;
	voltage_C -3464.101+6000.000j;
}

object node:269 {
	name R1-12-47-4_node_63;
	phases "ABCN";
	nominal_voltage 6928.203;
	voltage_A 6928.203+0.0j;
	voltage_B -3464.101-6000.000j;
	voltage_C -3464.101+6000.000j;
}

object node:270 {
	name R1-12-47-4_node_64;
	phases "ABCN";
	nominal_voltage 6928.203;
	voltage_A 6928.203+0.0j;
	voltage_B -3464.101-6000.000j;
	voltage_C -3464.101+6000.000j;
}

object node:271 {
	name R1-12-47-4_node_65;
	phases "ABCN";
	nominal_voltage 6928.203;
	voltage_A 6928.203+0.0j;
	voltage_B -3464.101-6000.000j;
	voltage_C -3464.101+6000.000j;
}

object node:272 {
	name R1-12-47-4_node_66;
	phases "ABCN";
	nominal_voltage 6928.203;
	voltage_A 6928.203+0.0j;
	voltage_B -3464.101-6000.000j;
	voltage_C -3464.101+6000.000j;
}

object node:273 {
	name R1-12-47-4_node_67;
	phases "ABCN";
	nominal_voltage 6928.203;
	voltage_A 6928.203+0.0j;
	voltage_B -3464.101-6000.000j;
	voltage_C -3464.101+6000.000j;
}

object node:274 {
	name R1-12-47-4_node_68;
	phases "ABCN";
	nominal_voltage 6928.203;
	voltage_A 6928.203+0.0j;
	voltage_B -3464.101-6000.000j;
	voltage_C -3464.101+6000.000j;
}

object node:275 {
	name R1-12-47-4_node_69;
	phases "ABCN";
	nominal_voltage 6928.203;
	voltage_A 6928.203+0.0j;
	voltage_B -3464.101-6000.000j;
	voltage_C -3464.101+6000.000j;
}

object node:276 {
	name R1-12-47-4_node_70;
	phases "ABCN";
	nominal_voltage 6928.203;
	voltage_A 6928.203+0.0j;
	voltage_B -3464.101-6000.000j;
	voltage_C -3464.101+6000.000j;
}

object node:277 {
	name R1-12-47-4_node_71;
	phases "ABCN";
	nominal_voltage 6928.203;
	voltage_A 6928.203+0.0j;
	voltage_B -3464.101-6000.000j;
	voltage_C -3464.101+6000.000j;
}

object node:278 {
	name R1-12-47-4_node_72;
	phases "ABCN";
	nominal_voltage 6928.203;
	voltage_A 6928.203+0.0j;
	voltage_B -3464.101-6000.000j;
	voltage_C -3464.101+6000.000j;
}

object node:279 {
	name R1-12-47-4_node_73;
	phases "ABCN";
	nominal_voltage 6928.203;
	voltage_A 6928.203+0.0j;
	voltage_B -3464.101-6000.000j;
	voltage_C -3464.101+6000.000j;
}

object node:280 {
	name R1-12-47-4_node_74;
	phases "ABCN";
	nominal_voltage 6928.203;
	voltage_A 6928.203+0.0j;
	voltage_B -3464.101-6000.000j;
	voltage_C -3464.101+6000.000j;
}

object node:281 {
	name R1-12-47-4_node_75;
	phases "ABCN";
	nominal_voltage 6928.203;
	voltage_A 6928.203+0.0j;
	voltage_B -3464.101-6000.000j;
	voltage_C -3464.101+6000.000j;
}

object node:282 {
	name R1-12-47-4_node_76;
	phases "ABCN";
	nominal_voltage 6928.203;
	voltage_A 6928.203+0.0j;
	voltage_B -3464.101-6000.000j;
	voltage_C -3464.101+6000.000j;
}

object node:283 {
	name R1-12-47-4_node_77;
	phases "ABCN";
	nominal_voltage 6928.203;
	voltage_A 6928.203+0.0j;
	voltage_B -3464.101-6000.000j;
	voltage_C -3464.101+6000.000j;
}

object node:284 {
	name R1-12-47-4_node_78;
	phases "ABCN";
	nominal_voltage 6928.203;
	voltage_A 6928.203+0.0j;
	voltage_B -3464.101-6000.000j;
	voltage_C -3464.101+6000.000j;
}

object node:285 {
	name R1-12-47-4_node_79;
	phases "ABCN";
	nominal_voltage 6928.203;
	voltage_A 6928.203+0.0j;
	voltage_B -3464.101-6000.000j;
	voltage_C -3464.101+6000.000j;
}

object node:286 {
	name R1-12-47-4_node_80;
	phases "ABCN";
	nominal_voltage 6928.203;
	voltage_A 6928.203+0.0j;
	voltage_B -3464.101-6000.000j;
	voltage_C -3464.101+6000.000j;
}

object node:287 {
	name R1-12-47-4_node_81;
	phases "ABCN";
	nominal_voltage 6928.203;
	voltage_A 6928.203+0.0j;
	voltage_B -3464.101-6000.000j;
	voltage_C -3464.101+6000.000j;
}

object node:288 {
	name R1-12-47-4_node_82;
	phases "ABCN";
	nominal_voltage 6928.203;
	voltage_A 6928.203+0.0j;
	voltage_B -3464.101-6000.000j;
	voltage_C -3464.101+6000.000j;
}

object node:289 {
	name R1-12-47-4_node_83;
	phases "ABCN";
	nominal_voltage 6928.203;
	voltage_A 6928.203+0.0j;
	voltage_B -3464.101-6000.000j;
	voltage_C -3464.101+6000.000j;
}

object node:290 {
	name R1-12-47-4_node_84;
	phases "ABCN";
	nominal_voltage 6928.203;
	voltage_A 6928.203+0.0j;
	voltage_B -3464.101-6000.000j;
	voltage_C -3464.101+6000.000j;
}

object node:291 {
	name R1-12-47-4_node_85;
	phases "ABCN";
	nominal_voltage 6928.203;
	voltage_A 6928.203+0.0j;
	voltage_B -3464.101-6000.000j;
	voltage_C -3464.101+6000.000j;
}

object node:292 {
	name R1-12-47-4_node_86;
	phases "ABCN";
	nominal_voltage 6928.203;
	voltage_A 6928.203+0.0j;
	voltage_B -3464.101-6000.000j;
	voltage_C -3464.101+6000.000j;
}

object node:293 {
	name R1-12-47-4_node_87;
	phases "ABCN";
	nominal_voltage 6928.203;
	voltage_A 6928.203+0.0j;
	voltage_B -3464.101-6000.000j;
	voltage_C -3464.101+6000.000j;
}

object node:294 {
	name R1-12-47-4_node_88;
	phases "ABCN";
	nominal_voltage 6928.203;
	voltage_A 6928.203+0.0j;
	voltage_B -3464.101-6000.000j;
	voltage_C -3464.101+6000.000j;
}

object node:295 {
	name R1-12-47-4_node_89;
	phases "ABCN";
	nominal_voltage 6928.203;
	voltage_A 6928.203+0.0j;
	voltage_B -3464.101-6000.000j;
	voltage_C -3464.101+6000.000j;
}

object node:296 {
	name R1-12-47-4_node_90;
	phases "ABCN";
	nominal_voltage 6928.203;
	voltage_A 6928.203+0.0j;
	voltage_B -3464.101-6000.000j;
	voltage_C -3464.101+6000.000j;
}

object node:297 {
	name R1-12-47-4_node_91;
	phases "ABCN";
	nominal_voltage 6928.203;
	voltage_A 6928.203+0.0j;
	voltage_B -3464.101-6000.000j;
	voltage_C -3464.101+6000.000j;
}

object node:298 {
	name R1-12-47-4_node_92;
	phases "ABCN";
	nominal_voltage 6928.203;
	voltage_A 6928.203+0.0j;
	voltage_B -3464.101-6000.000j;
	voltage_C -3464.101+6000.000j;
}

object node:299 {
	name R1-12-47-4_node_93;
	phases "ABCN";
	nominal_voltage 6928.203;
	voltage_A 6928.203+0.0j;
	voltage_B -3464.101-6000.000j;
	voltage_C -3464.101+6000.000j;
}

object node:300 {
	name R1-12-47-4_node_94;
	phases "ABCN";
	nominal_voltage 6928.203;
	voltage_A 6928.203+0.0j;
	voltage_B -3464.101-6000.000j;