//*********************************************
// $Id: R1-12.47-3.glm 1132 2008-11-18 22:36:10Z dchassin $ 
//*********************************************

clock { 
	 timezone PST+8PDT;
	 timestamp '2000-01-01 0:00:00';
}

//*********************************************
// modules
module powerflow;


object triplex_line_conductor: {
	name 1/0 AA triplex;
	resistance 0.97;
	geometric_mean_radius 0.0111;
}

object triplex_line_configuration:1 {
	conductor_1 1/0 AA triplex;
	conductor_2 1/0 AA triplex;
	conductor_N 1/0 AA triplex;
	insulation_thickness 0.08;
	diameter 0.368;
}

object transformer:108  {
	phases "A|B|C|N";
	from 113008;
	to 113008_C_M;
	configuration transformer_configuration:98;
}

object meter:109 {
	name 113008_C_M;
	phases "ABCN";
	nominal_voltage 7199.558;
	voltage_A 7199.558+0.0j;
	voltage_B -3599.779-6235.000j;
	voltage_C -3599.779+6235.000j;
}
object transformer:110  {
	phases "A|B|C|N";
	from 113010;
	to 113010_C_M;
	configuration transformer_configuration:99;
}

object meter:111 {
	name 113010_C_M;
	phases "ABCN";
	nominal_voltage 7199.558;
	voltage_A 7199.558+0.0j;
	voltage_B -3599.779-6235.000j;
	voltage_C -3599.779+6235.000j;
}
object transformer:112  {
	phases "AS";
	from 113012;
	to 113012_CA_M;
	configuration transformer_configuration:52;
}

object triplex_meter:113 {
	name 113012_CA_M;
	phases "AS";
	nominal_voltage 120;
	voltage_1 120;
	voltage_2 120;
	voltage_N 0;
}

object triplex_node:114 {
	name 113012_CA_TX;
	parent 113012_CA_M;
	phases AS;
	nominal_voltage 120;
	latitude 48N50'48.861";
	longitude 122W49'35.716";
	power_1 15.5644724819741+0.22242542072076j;
	voltage_1 120;
	voltage_2 120;
	voltage_N 0;
}

object transformer:115  {
	phases "AS";
	from 113014;
	to 113014_RA_M;
	configuration transformer_configuration:53;
}

object triplex_meter:116 {
	name 113014_RA_M;
	phases "AS";
	nominal_voltage 120;
	voltage_1 120;
	voltage_2 120;
	voltage_N 0;
}

object triplex_node:117 {
	name 113014_RA_TX;
	parent 113014_RA_M;
	phases AS;
	nominal_voltage 120;
	latitude 48N50'48.896";
	longitude 122W49'38.477";
	power_1 11.6733543614806+0.16681906554057j;
	voltage_1 120;
	voltage_2 120;
	voltage_N 0;
}

object transformer:118  {
	phases "AS";
	from 113016;
	to 113016_RA_M;
	configuration transformer_configuration:54;
}

object triplex_meter:119 {
	name 113016_RA_M;
	phases "AS";
	nominal_voltage 120;
	voltage_1 120;
	voltage_2 120;
	voltage_N 0;
}

object triplex_node:120 {
	name 113016_RA_TX;
	parent 113016_RA_M;
	phases AS;
	nominal_voltage 120;
	latitude 48N50'46.246";
	longitude 122W49'34.899";
	power_1 23.3467087229612+0.333638131081139j;
	voltage_1 120;
	voltage_2 120;
	voltage_N 0;
}

object transformer:121  {
	phases "AS";
	from 113018;
	to 113018_RA_M;
	configuration transformer_configuration:55;
}

object triplex_meter:122 {
	name 113018_RA_M;
	phases "AS";
	nominal_voltage 120;
	voltage_1 120;
	voltage_2 120;
	voltage_N 0;
}

object triplex_node:123 {
	name 113018_RA_TX;
	parent 113018_RA_M;
	phases AS;
	nominal_voltage 120;
	latitude 48N50'46.649";
	longitude 122W49'39.535";
	power_1 15.5644724819741+0.22242542072076j;
	voltage_1 120;
	voltage_2 120;
	voltage_N 0;
}

object transformer:124  {
	phases "AS";
	from 113020;
	to 113020_RA_M;
	configuration transformer_configuration:56;
}

object triplex_meter:125 {
	name 113020_RA_M;
	phases "AS";
	nominal_voltage 120;
	voltage_1 120;
	voltage_2 120;
	voltage_N 0;
}

object triplex_node:126 {
	name 113020_RA_TX;
	parent 113020_RA_M;
	phases AS;
	nominal_voltage 120;
	latitude 48N50'45.088";
	longitude 122W49'34.897";
	power_1 7.78223624098707+0.11121271036038j;
	voltage_1 120;
	voltage_2 120;
	voltage_N 0;
}

object transformer:127  {
	phases "AS";
	from 113022;
	to 113022_RA_M;
	configuration transformer_configuration:57;
}

object triplex_meter:128 {
	name 113022_RA_M;
	phases "AS";
	nominal_voltage 120;
	voltage_1 120;
	voltage_2 120;
	voltage_N 0;
}

object triplex_node:129 {
	name 113022_RA_TX;
	parent 113022_RA_M;
	phases AS;
	nominal_voltage 120;
	latitude 48N50'46.968";
	longitude 122W49'44.613";
	power_1 46.6934174459224+0.667276262162279j;
	voltage_1 120;
	voltage_2 120;
	voltage_N 0;
}

object transformer:130  {
	phases "AS";
	from 113024;
	to 113024_CA_M;
	configuration transformer_configuration:58;
}

object triplex_meter:131 {
	name 113024_CA_M;
	phases "AS";
	nominal_voltage 120;
	voltage_1 120;
	voltage_2 120;
	voltage_N 0;
}

object triplex_node:132 {
	name 113024_CA_TX;
	parent 113024_CA_M;
	phases AS;
	nominal_voltage 120;
	latitude 48N50'46.170";
	longitude 122W49'31.178";
	power_1 38.9111812049354+0.556063551801899j;
	voltage_1 120;
	voltage_2 120;
	voltage_N 0;
}

object transformer:133  {
	phases "AS";
	from 113026;
	to 113026_CA_M;
	configuration transformer_configuration:53;
}

object triplex_meter:134 {
	name 113026_CA_M;
	phases "AS";
	nominal_voltage 120;
	voltage_1 120;
	voltage_2 120;
	voltage_N 0;
}

object triplex_node:135 {
	name 113026_CA_TX;
	parent 113026_CA_M;
	phases AS;
	nominal_voltage 120;
	latitude 48N50'46.044";
	longitude 122W49'32.592";
	power_1 11.6733543614806+0.16681906554057j;
	voltage_1 120;
	voltage_2 120;
	voltage_N 0;
}

object transformer:136  {
	phases "AS";
	from 113028;
	to 113028_CA_M;
	configuration transformer_configuration:52;
}

object triplex_meter:137 {
	name 113028_CA_M;
	phases "AS";
	nominal_voltage 120;
	voltage_1 120;
	voltage_2 120;
	voltage_N 0;
}

object triplex_node:138 {
	name 113028_CA_TX;
	parent 113028_CA_M;
	phases AS;
	nominal_voltage 120;
	latitude 48N50'47.750";
	longitude 122W49'31.102";
	power_1 15.5644724819741+0.22242542072076j;
	voltage_1 120;
	voltage_2 120;
	voltage_N 0;
}

object transformer:139  {
	phases "BS";
	from 113030;
	to 113030_RB_M;
	configuration transformer_configuration:69;
}

object triplex_meter:140 {
	name 113030_RB_M;
	phases "BS";
	nominal_voltage 120;
	voltage_1 -60.000-103.923j;
	voltage_2 -60.000-103.923j;
	voltage_N 0;
}

object triplex_node:141 {
	name 113030_RB_TX;
	parent 113030_RB_M;
	phases BS;
	nominal_voltage 120;
	latitude 48N50'58.623";
	longitude 122W49'37.181";
	power_1 5.55913294814795+0.169250947029877j;
	voltage_1 -60.000-103.923j;
	voltage_2 -60.000-103.923j;
	voltage_N 0;
}

object transformer:142  {
	phases "AS";
	from 113034;
	to 113034_RA_M;
	configuration transformer_configuration:59;
}

object triplex_meter:143 {
	name 113034_RA_M;
	phases "AS";
	nominal_voltage 120;
	voltage_1 120;
	voltage_2 120;
	voltage_N 0;
}

object triplex_node:144 {
	name 113034_RA_TX;
	parent 113034_RA_M;
	phases AS;
	nominal_voltage 120;
	latitude 48N51'1.099";
	longitude 122W49'48.493";
	power_1 16.3426961060729+0.233546691756798j;
	voltage_1 120;
	voltage_2 120;
	voltage_N 0;
}

object transformer:145  {
	phases "BS";
	from 113034;
	to 113034_RB_M;
	configuration transformer_configuration:70;
}

object triplex_meter:146 {
	name 113034_RB_M;
	phases "BS";
	nominal_voltage 120;
	voltage_1 -60.000-103.923j;
	voltage_2 -60.000-103.923j;
	voltage_N 0;
}

object triplex_node:147 {
	name 113034_RB_TX;
	parent 113034_RB_M;
	phases BS;
	nominal_voltage 120;
	latitude 48N51'1.099";
	longitude 122W49'48.493";
	power_1 3.33547976888877+0.101550568217926j;
	voltage_1 -60.000-103.923j;
	voltage_2 -60.000-103.923j;
	voltage_N 0;
}

object transformer:148  {
	phases "CS";
	from 113034;
	to 113034_RC_M;
	configuration transformer_configuration:89;
}

object triplex_meter:149 {
	name 113034_RC_M;
	phases "CS";
	nominal_voltage 120;
	voltage_1 -60.000+103.923j;
	voltage_2 -60.000+103.923j;
	voltage_N 0;
}

object triplex_node:150 {
	name 113034_RC_TX;
	parent 113034_RC_M;
	phases CS;
	nominal_voltage 120;
	latitude 48N51'1.099";
	longitude 122W49'48.493";
	power_1 0+0j;
	voltage_1 -60.000+103.923j;
	voltage_2 -60.000+103.923j;
	voltage_N 0;
}

object transformer:151  {
	phases "AS";
	from 113040;
	to 113040_RA_M;
	configuration transformer_configuration:60;
}

object triplex_meter:152 {
	name 113040_RA_M;
	phases "AS";
	nominal_voltage 120;
	voltage_1 120;
	voltage_2 120;
	voltage_N 0;
}

object triplex_node:153 {
	name 113040_RA_TX;
	parent 113040_RA_M;
	phases AS;
	nominal_voltage 120;
	latitude 48N51'1.459";
	longitude 122W50'5.565";
	power_1 3.11289449639483+0.0444850841441519j;
	voltage_1 120;
	voltage_2 120;
	voltage_N 0;
}

object transformer:154  {
	phases "BS";
	from 113040;
	to 113040_RB_M;
	configuration transformer_configuration:71;
}

object triplex_meter:155 {
	name 113040_RB_M;
	phases "BS";
	nominal_voltage 120;
	voltage_1 -60.000-103.923j;
	voltage_2 -60.000-103.923j;
	voltage_N 0;
}

object triplex_node:156 {
	name 113040_RB_TX;
	parent 113040_RB_M;
	phases BS;
	nominal_voltage 120;
	latitude 48N51'1.459";
	longitude 122W50'5.565";
	power_1 8.33869942222193+0.253876420544816j;
	voltage_1 -60.000-103.923j;
	voltage_2 -60.000-103.923j;
	voltage_N 0;
}

object transformer:157  {
	phases "CS";
	from 113040;
	to 113040_RC_M;
	configuration transformer_configuration:90;
}

object triplex_meter:158 {
	name 113040_RC_M;
	phases "CS";
	nominal_voltage 120;
	voltage_1 -60.000+103.923j;
	voltage_2 -60.000+103.923j;
	voltage_N 0;
}

object triplex_node:159 {
	name 113040_RC_TX;
	parent 113040_RC_M;
	phases CS;
	nominal_voltage 120;
	latitude 48N51'1.459";
	longitude 122W50'5.565";
	power_1 20.2286261257805+0.249711244890101j;
	voltage_1 -60.000+103.923j;
	voltage_2 -60.000+103.923j;
	voltage_N 0;
}

object transformer:160  {
	phases "BS";
	from 113042;
	to 113042_CB_M;
	configuration transformer_configuration:70;
}

object triplex_meter:161 {
	name 113042_CB_M;
	phases "BS";
	nominal_voltage 120;
	voltage_1 -60.000-103.923j;
	voltage_2 -60.000-103.923j;
	voltage_N 0;
}

object triplex_node:162 {
	name 113042_CB_TX;
	parent 113042_CB_M;
	phases BS;
	nominal_voltage 120;
	latitude 48N51'2.192";
	longitude 122W50'5.904";
	power_1 3.33547976888877+0.101550568217926j;
	voltage_1 -60.000-103.923j;
	voltage_2 -60.000-103.923j;
	voltage_N 0;
}

object transformer:163  {
	phases "BS";
	from 113044;
	to 113044_CB_M;
	configuration transformer_configuration:68;
}

object triplex_meter:164 {
	name 113044_CB_M;
	phases "BS";
	nominal_voltage 120;
	voltage_1 -60.000-103.923j;
	voltage_2 -60.000-103.923j;
	voltage_N 0;
}

object triplex_node:165 {
	name 113044_CB_TX;
	parent 113044_CB_M;
	phases BS;
	nominal_voltage 120;
	latitude 48N51'2.443";
	longitude 122W50'13.489";
	power_1 11.1182658962959+0.338501894059754j;
	voltage_1 -60.000-103.923j;
	voltage_2 -60.000-103.923j;
	voltage_N 0;
}

object transformer:166  {
	phases "A|B|C|N";
	from 113046;
	to 113046_C_M;
	configuration transformer_configuration:105;
}

object meter:167 {
	name 113046_C_M;
	phases "ABCN";
	nominal_voltage 7199.558;
	voltage_A 7199.558+0.0j;
	voltage_B -3599.779-6235.000j;
	voltage_C -3599.779+6235.000j;
}
object transformer:168  {
	phases "AS";
	from 113048;
	to 113048_CA_M;
	configuration transformer_configuration:52;
}

object triplex_meter:169 {
	name 113048_CA_M;
	phases "AS";
	nominal_voltage 120;
	voltage_1 120;
	voltage_2 120;
	voltage_N 0;
}

object triplex_node:170 {
	name 113048_CA_TX;
	parent 113048_CA_M;
	phases AS;
	nominal_voltage 120;
	latitude 48N51'4.361";
	longitude 122W50'21.609";
	power_1 15.5644724819741+0.22242542072076j;
	voltage_1 120;
	voltage_2 120;
	voltage_N 0;
}

object transformer:171  {
	phases "AS";
	from 113050;
	to 113050_CA_M;
	configuration transformer_configuration:61;
}

object triplex_meter:172 {
	name 113050_CA_M;
	phases "AS";
	nominal_voltage 120;
	voltage_1 120;
	voltage_2 120;
	voltage_N 0;
}

object triplex_node:173 {
	name 113050_CA_TX;
	parent 113050_CA_M;
	phases AS;
	nominal_voltage 120;
	latitude 48N51'4.219";
	longitude 122W50'16.270";
	power_1 4.66934174459224+0.0667276262162279j;
	voltage_1 120;
	voltage_2 120;
	voltage_N 0;
}

object transformer:174  {
	phases "AS";
	from 113052;
	to 113052_CA_M;
	configuration transformer_configuration:56;
}

object triplex_meter:175 {
	name 113052_CA_M;
	phases "AS";
	nominal_voltage 120;
	voltage_1 120;
	voltage_2 120;
	voltage_N 0;
}

object triplex_node:176 {
	name 113052_CA_TX;
	parent 113052_CA_M;
	phases AS;
	nominal_voltage 120;
	latitude 48N51'8.340";
	longitude 122W50'19.811";
	power_1 7.78223624098707+0.11121271036038j;
	voltage_1 120;
	voltage_2 120;
	voltage_N 0;
}

object transformer:177  {
	phases "BS";
	from 113062;
	to 113062_RB_M;
	configuration transformer_configuration:69;
}

object triplex_meter:178 {
	name 113062_RB_M;
	phases "BS";
	nominal_voltage 120;
	voltage_1 -60.000-103.923j;
	voltage_2 -60.000-103.923j;
	voltage_N 0;
}

object triplex_node:179 {
	name 113062_RB_TX;
	parent 113062_RB_M;
	phases BS;
	nominal_voltage 120;
	latitude 48N50'11.773";
	longitude 122W50'25.645";
	power_1 5.55913294814795+0.169250947029877j;
	voltage_1 -60.000-103.923j;
	voltage_2 -60.000-103.923j;
	voltage_N 0;
}

object transformer:180  {
	phases "BS";
	from 113064;
	to 113064_RB_M;
	configuration transformer_configuration:71;
}

object triplex_meter:181 {
	name 113064_RB_M;
	phases "BS";
	nominal_voltage 120;
	voltage_1 -60.000-103.923j;
	voltage_2 -60.000-103.923j;
	voltage_N 0;
}

object triplex_node:182 {
	name 113064_RB_TX;
	parent 113064_RB_M;
	phases BS;
	nominal_voltage 120;
	latitude 48N50'11.220";
	longitude 122W50'11.180";
	power_1 8.33869942222193+0.253876420544816j;
	voltage_1 -60.000-103.923j;
	voltage_2 -60.000-103.923j;
	voltage_N 0;
}

object transformer:183  {
	phases "BS";
	from 113066;
	to 113066_RB_M;
	configuration transformer_configuration:72;
}

object triplex_meter:184 {
	name 113066_RB_M;
	phases "BS";
	nominal_voltage 120;
	voltage_1 -60.000-103.923j;
	voltage_2 -60.000-103.923j;
	voltage_N 0;
}

object triplex_node:185 {
	name 113066_RB_TX;
	parent 113066_RB_M;
	phases BS;
	nominal_voltage 120;
	latitude 48N50'13.254";
	longitude 122W50'12.574";
	power_1 5.55913294814795+0.169250947029877j;
	voltage_1 -60.000-103.923j;
	voltage_2 -60.000-103.923j;
	voltage_N 0;
}

object transformer:186  {
	phases "BS";
	from 113116;
	to 113116_RB_M;
	configuration transformer_configuration:70;
}

object triplex_meter:187 {
	name 113116_RB_M;
	phases "BS";
	nominal_voltage 120;
	voltage_1 -60.000-103.923j;
	voltage_2 -60.000-103.923j;
	voltage_N 0;
}

object triplex_node:188 {
	name 113116_RB_TX;
	parent 113116_RB_M;
	phases BS;
	nominal_voltage 120;
	latitude 48N49'36.012";
	longitude 122W52'47.973";
	power_1 3.33547976888877+0.101550568217926j;
	voltage_1 -60.000-103.923j;
	voltage_2 -60.000-103.923j;
	voltage_N 0;
}

object transformer:189  {
	phases "BS";
	from 113123;
	to 113123_RB_M;
	configuration transformer_configuration:72;
}

object triplex_meter:190 {
	name 113123_RB_M;
	phases "BS";
	nominal_voltage 120;
	voltage_1 -60.000-103.923j;
	voltage_2 -60.000-103.923j;
	voltage_N 0;
}

object triplex_node:191 {
	name 113123_RB_TX;
	parent 113123_RB_M;
	phases BS;
	nominal_voltage 120;
	latitude 48N49'42.860";
	longitude 122W52'26.194";
	power_1 5.55913294814795+0.169250947029877j;
	voltage_1 -60.000-103.923j;
	voltage_2 -60.000-103.923j;
	voltage_N 0;
}

object transformer:192  {
	phases "BS";
	from Node_1183121482;
	to Node_1183121482_RB_M;
	configuration transformer_configuration:72;
}

object triplex_meter:193 {
	name Node_1183121482_RB_M;
	phases "BS";
	nominal_voltage 120;
	voltage_1 -60.000-103.923j;
	voltage_2 -60.000-103.923j;
	voltage_N 0;
}

object triplex_node:194 {
	name Node_1183121482_RB_TX;
	parent Node_1183121482_RB_M;
	phases BS;
	nominal_voltage 120;
	latitude 48N49'26.083";
	longitude 122W52'27.249";
	power_1 5.55913294814795+0.169250947029877j;
	voltage_1 -60.000-103.923j;
	voltage_2 -60.000-103.923j;
	voltage_N 0;
}

object transformer:195  {
	phases "BS";
	from 113125;
	to 113125_RB_M;
	configuration transformer_configuration:72;
}

object triplex_meter:196 {
	name 113125_RB_M;
	phases "BS";
	nominal_voltage 120;
	voltage_1 -60.000-103.923j;
	voltage_2 -60.000-103.923j;
	voltage_N 0;
}

object triplex_node:197 {
	name 113125_RB_TX;
	parent 113125_RB_M;
	phases BS;
	nominal_voltage 120;
	latitude 48N49'41.650";
	longitude 122W52'26.159";
	power_1 5.55913294814795+0.169250947029877j;
	voltage_1 -60.000-103.923j;
	voltage_2 -60.000-103.923j;
	voltage_N 0;
}

object transformer:198  {
	phases "BS";
	from 113126;
	to 113126_RB_M;
	configuration transformer_configuration:73;
}

object triplex_meter:199 {
	name 113126_RB_M;
	phases "BS";
	nominal_voltage 120;
	voltage_1 -60.000-103.923j;
	voltage_2 -60.000-103.923j;
	voltage_N 0;
}

object triplex_node:200 {
	name 113126_RB_TX;
	parent 113126_RB_M;
	phases BS;
	nominal_voltage 120;
	latitude 48N49'27.443";
	longitude 122W52'47.423";
	power_1 2.22365317925918+0.0677003788119508j;
	voltage_1 -60.000-103.923j;
	voltage_2 -60.000-103.923j;
	voltage_N 0;
}

object transformer:201  {
	phases "BS";
	from 113128;
	to 113128_RB_M;
	configuration transformer_configuration:72;
}

object triplex_meter:202 {
	name 113128_RB_M;
	phases "BS";
	nominal_voltage 120;
	voltage_1 -60.000-103.923j;
	voltage_2 -60.000-103.923j;
	voltage_N 0;
}

object triplex_node:203 {
	name 113128_RB_TX;
	parent 113128_RB_M;
	phases BS;
	nominal_voltage 120;
	latitude 48N49'26.681";
	longitude 122W52'54.904";
	power_1 5.55913294814795+0.169250947029877j;
	voltage_1 -60.000-103.923j;
	voltage_2 -60.000-103.923j;
	voltage_N 0;
}

object transformer:204  {
	phases "BS";
	from 113132;
	to 113132_RB_M;
	configuration transformer_configuration:74;
}

object triplex_meter:205 {
	name 113132_RB_M;
	phases "BS";
	nominal_voltage 120;
	voltage_1 -60.000-103.923j;
	voltage_2 -60.000-103.923j;
	voltage_N 0;
}

object triplex_node:206 {
	name 113132_RB_TX;
	parent 113132_RB_M;
	phases BS;
	nominal_voltage 120;
	latitude 48N49'23.849";
	longitude 122W52'43.411";
	power_1 6.67095953777755+0.203101136435853j;
	voltage_1 -60.000-103.923j;
	voltage_2 -60.000-103.923j;
	voltage_N 0;
}

object transformer:207  {
	phases "BS";
	from 113134;
	to 113134_RB_M;
	configuration transformer_configuration:70;
}

object triplex_meter:208 {
	name 113134_RB_M;
	phases "BS";
	nominal_voltage 120;
	voltage_1 -60.000-103.923j;
	voltage_2 -60.000-103.923j;
	voltage_N 0;
}

object triplex_node:209 {
	name 113134_RB_TX;
	parent 113134_RB_M;
	phases BS;
	nominal_voltage 120;
	latitude 48N49'24.661";
	longitude 122W52'49.465";
	power_1 3.33547976888877+0.101550568217926j;
	voltage_1 -60.000-103.923j;
	voltage_2 -60.000-103.923j;
	voltage_N 0;
}

object transformer:210  {
	phases "BS";
	from 113138;
	to 113138_RB_M;
	configuration transformer_configuration:69;
}

object triplex_meter:211 {
	name 113138_RB_M;
	phases "BS";
	nominal_voltage 120;
	voltage_1 -60.000-103.923j;
	voltage_2 -60.000-103.923j;
	voltage_N 0;
}

object triplex_node:212 {
	name 113138_RB_TX;
	parent 113138_RB_M;
	phases BS;
	nominal_voltage 120;
	latitude 48N49'22.164";
	longitude 122W52'59.755";
	power_1 5.55913294814795+0.169250947029877j;
	voltage_1 -60.000-103.923j;
	voltage_2 -60.000-103.923j;
	voltage_N 0;
}

object transformer:213  {
	phases "BS";
	from 113140;
	to 113140_RB_M;
	configuration transformer_configuration:72;
}

object triplex_meter:214 {
	name 113140_RB_M;
	phases "BS";
	nominal_voltage 120;
	voltage_1 -60.000-103.923j;
	voltage_2 -60.000-103.923j;
	voltage_N 0;
}

object triplex_node:215 {
	name 113140_RB_TX;
	parent 113140_RB_M;
	phases BS;
	nominal_voltage 120;
	latitude 48N49'23.164";
	longitude 122W53'1.889";
	power_1 5.55913294814795+0.169250947029877j;
	voltage_1 -60.000-103.923j;
	voltage_2 -60.000-103.923j;
	voltage_N 0;
}

object transformer:216  {
	phases "BS";
	from 113142;
	to 113142_RB_M;
	configuration transformer_configuration:70;
}

object triplex_meter:217 {
	name 113142_RB_M;
	phases "BS";
	nominal_voltage 120;
	voltage_1 -60.000-103.923j;
	voltage_2 -60.000-103.923j;
	voltage_N 0;
}

object triplex_node:218 {
	name 113142_RB_TX;
	parent 113142_RB_M;
	phases BS;
	nominal_voltage 120;
	latitude 48N49'14.042";
	longitude 122W53'4.553";
	power_1 3.33547976888877+0.101550568217926j;
	voltage_1 -60.000-103.923j;
	voltage_2 -60.000-103.923j;
	voltage_N 0;
}

object transformer:219  {
	phases "BS";
	from 113144;
	to 113144_RB_M;
	configuration transformer_configuration:72;
}

object triplex_meter:220 {
	name 113144_RB_M;
	phases "BS";
	nominal_voltage 120;
	voltage_1 -60.000-103.923j;
	voltage_2 -60.000-103.923j;
	voltage_N 0;
}

object triplex_node:221 {
	name 113144_RB_TX;
	parent 113144_RB_M;
	phases BS;
	nominal_voltage 120;
	latitude 48N49'15.140";
	longitude 122W53'6.212";
	power_1 5.55913294814795+0.169250947029877j;
	voltage_1 -60.000-103.923j;
	voltage_2 -60.000-103.923j;
	voltage_N 0;
}

object transformer:222  {
	phases "BS";
	from 113146;
	to 113146_RB_M;
	configuration transformer_configuration:70;
}

object triplex_meter:223 {
	name 113146_RB_M;
	phases "BS";
	nominal_voltage 120;
	voltage_1 -60.000-103.923j;
	voltage_2 -60.000-103.923j;
	voltage_N 0;
}

object triplex_node:224 {
	name 113146_RB_TX;
	parent 113146_RB_M;
	phases BS;
	nominal_voltage 120;
	latitude 48N49'13.046";
	longitude 122W53'6.178";
	power_1 3.33547976888877+0.101550568217926j;
	voltage_1 -60.000-103.923j;
	voltage_2 -60.000-103.923j;
	voltage_N 0;
}

object transformer:225  {
	phases "BS";
	from 113150;
	to 113150_RB_M;
	configuration transformer_configuration:75;
}

object triplex_meter:226 {
	name 113150_RB_M;
	phases "BS";
	nominal_voltage 120;
	voltage_1 -60.000-103.923j;
	voltage_2 -60.000-103.923j;
	voltage_N 0;
}

object triplex_node:227 {
	name 113150_RB_TX;
	parent 113150_RB_M;
	phases BS;
	nominal_voltage 120;
	latitude 48N49'12.682";
	longitude 122W53'0.124";
	power_1 11.1182658962959+0.338501894059754j;
	voltage_1 -60.000-103.923j;
	voltage_2 -60.000-103.923j;
	voltage_N 0;
}

object transformer:228  {
	phases "BS";
	from 113156;
	to 113156_RB_M;
	configuration transformer_configuration:72;
}

object triplex_meter:229 {
	name 113156_RB_M;
	phases "BS";
	nominal_voltage 120;
	voltage_1 -60.000-103.923j;
	voltage_2 -60.000-103.923j;
	voltage_N 0;
}

object triplex_node:230 {
	name 113156_RB_TX;
	parent 113156_RB_M;
	phases BS;
	nominal_voltage 120;
	latitude 48N49'13.519";
	longitude 122W53'10.593";
	power_1 5.55913294814795+0.169250947029877j;
	voltage_1 -60.000-103.923j;
	voltage_2 -60.000-103.923j;
	voltage_N 0;
}

object transformer:231  {
	phases "BS";
	from 113158;
	to 113158_RB_M;
	configuration transformer_configuration:72;
}

object triplex_meter:232 {
	name 113158_RB_M;
	phases "BS";
	nominal_voltage 120;
	voltage_1 -60.000-103.923j;
	voltage_2 -60.000-103.923j;
	voltage_N 0;
}

object triplex_node:233 {
	name 113158_RB_TX;
	parent 113158_RB_M;
	phases BS;
	nominal_voltage 120;
	latitude 48N49'10.713";
	longitude 122W53'13.107";
	power_1 5.55913294814795+0.169250947029877j;
	voltage_1 -60.000-103.923j;
	voltage_2 -60.000-103.923j;
	voltage_N 0;
}

object transformer:234  {
	phases "BS";
	from 113166;
	to 113166_RB_M;
	configuration transformer_configuration:75;
}

object triplex_meter:235 {
	name 113166_RB_M;
	phases "BS";
	nominal_voltage 120;
	voltage_1 -60.000-103.923j;
	voltage_2 -60.000-103.923j;
	voltage_N 0;
}

object triplex_node:236 {
	name 113166_RB_TX;
	parent 113166_RB_M;
	phases BS;
	nominal_voltage 120;
	latitude 48N49'6.692";
	longitude 122W53'4.571";
	power_1 11.1182658962959+0.338501894059754j;
	voltage_1 -60.000-103.923j;
	voltage_2 -60.000-103.923j;
	voltage_N 0;
}

object transformer:237  {
	phases "BS";
	from 113168;
	to 113168_RB_M;
	configuration transformer_configuration:76;
}

object triplex_meter:238 {
	name 113168_RB_M;
	phases "BS";
	nominal_voltage 120;
	voltage_1 -60.000-103.923j;
	voltage_2 -60.000-103.923j;
	voltage_N 0;
}

object triplex_node:239 {
	name 113168_RB_TX;
	parent 113168_RB_M;
	phases BS;
	nominal_voltage 120;
	latitude 48N49'5.905";
	longitude 122W52'58.278";
	power_1 8.33869942222193+0.253876420544816j;
	voltage_1 -60.000-103.923j;
	voltage_2 -60.000-103.923j;
	voltage_N 0;
}

object transformer:240  {
	phases "BS";
	from 113172;
	to 113172_RB_M;
	configuration transformer_configuration:76;
}

object triplex_meter:241 {
	name 113172_RB_M;
	phases "BS";
	nominal_voltage 120;
	voltage_1 -60.000-103.923j;
	voltage_2 -60.000-103.923j;
	voltage_N 0;
}

object triplex_node:242 {
	name 113172_RB_TX;
	parent 113172_RB_M;
	phases BS;
	nominal_voltage 120;
	latitude 48N49'1.499";
	longitude 122W53'1.767";
	power_1 8.33869942222193+0.253876420544816j;
	voltage_1 -60.000-103.923j;
	voltage_2 -60.000-103.923j;
	voltage_N 0;
}

object transformer:243  {
	phases "BS";
	from 113174;
	to 113174_RB_M;
	configuration transformer_configuration:75;
}

object triplex_meter:244 {
	name 113174_RB_M;
	phases "BS";
	nominal_voltage 120;
	voltage_1 -60.000-103.923j;
	voltage_2 -60.000-103.923j;
	voltage_N 0;
}

object triplex_node:245 {
	name 113174_RB_TX;
	parent 113174_RB_M;
	phases BS;
	nominal_voltage 120;
	latitude 48N49'1.632";
	longitude 122W53'4.761";
	power_1 11.1182658962959+0.338501894059754j;
	voltage_1 -60.000-103.923j;
	voltage_2 -60.000-103.923j;
	voltage_N 0;
}

object transformer:246  {
	phases "BS";
	from 113176;
	to 113176_RB_M;
	configuration transformer_configuration:75;
}

object triplex_meter:247 {
	name 113176_RB_M;
	phases "BS";
	nominal_voltage 120;
	voltage_1 -60.000-103.923j;
	voltage_2 -60.000-103.923j;
	voltage_N 0;
}

object triplex_node:248 {
	name 113176_RB_TX;
	parent 113176_RB_M;
	phases BS;
	nominal_voltage 120;
	latitude 48N48'57.371";
	longitude 122W52'59.665";
	power_1 11.1182658962959+0.338501894059754j;
	voltage_1 -60.000-103.923j;
	voltage_2 -60.000-103.923j;
	voltage_N 0;
}

object transformer:249  {
	phases "BS";
	from 113178;
	to 113178_RB_M;
	configuration transformer_configuration:70;
}

object triplex_meter:250 {
	name 113178_RB_M;
	phases "BS";
	nominal_voltage 120;
	voltage_1 -60.000-103.923j;
	voltage_2 -60.000-103.923j;
	voltage_N 0;
}

object triplex_node:251 {
	name 113178_RB_TX;
	parent 113178_RB_M;
	phases BS;
	nominal_voltage 120;
	latitude 48N48'54.063";
	longitude 122W52'59.228";
	power_1 3.33547976888877+0.101550568217926j;
	voltage_1 -60.000-103.923j;
	voltage_2 -60.000-103.923j;
	voltage_N 0;
}

object transformer:252  {
	phases "BS";
	from 113180;
	to 113180_RB_M;
	configuration transformer_configuration:69;
}

object triplex_meter:253 {
	name 113180_RB_M;
	phases "BS";
	nominal_voltage 120;
	voltage_1 -60.000-103.923j;
	voltage_2 -60.000-103.923j;
	voltage_N 0;
}

object triplex_node:254 {
	name 113180_RB_TX;
	parent 113180_RB_M;
	phases BS;
	nominal_voltage 120;
	latitude 48N48'54.093";
	longitude 122W53'0.772";
	power_1 5.55913294814795+0.169250947029877j;
	voltage_1 -60.000-103.923j;
	voltage_2 -60.000-103.923j;
	voltage_N 0;
}

object transformer:255  {
	phases "BS";
	from 113182;
	to 113182_RB_M;
	configuration transformer_configuration:72;
}

object triplex_meter:256 {
	name 113182_RB_M;
	phases "BS";
	nominal_voltage 120;
	voltage_1 -60.000-103.923j;
	voltage_2 -60.000-103.923j;
	voltage_N 0;
}

object triplex_node:257 {
	name 113182_RB_TX;
	parent 113182_RB_M;
	phases BS;
	nominal_voltage 120;
	latitude 48N48'50.543";
	longitude 122W52'59.595";
	power_1 5.55913294814795+0.169250947029877j;
	voltage_1 -60.000-103.923j;
	voltage_2 -60.000-103.923j;
	voltage_N 0;
}

object transformer:258  {
	phases "BS";
	from 113184;
	to 113184_RB_M;
	configuration transformer_configuration:72;
}

object triplex_meter:259 {
	name 113184_RB_M;
	phases "BS";
	nominal_voltage 120;
	voltage_1 -60.000-103.923j;
	voltage_2 -60.000-103.923j;
	voltage_N 0;
}

object triplex_node:260 {
	name 113184_RB_TX;
	parent 113184_RB_M;
	phases BS;
	nominal_voltage 120;
	latitude 48N49'10.463";
	longitude 122W53'1.090";
	power_1 5.55913294814795+0.169250947029877j;
	voltage_1 -60.000-103.923j;
	voltage_2 -60.000-103.923j;
	voltage_N 0;
}

object transformer:261  {
	phases "BS";
	from 113186;
	to 113186_RB_M;
	configuration transformer_configuration:70;
}

object triplex_meter:262 {
	name 113186_RB_M;
	phases "BS";
	nominal_voltage 120;
	voltage_1 -60.000-103.923j;
	voltage_2 -60.000-103.923j;
	voltage_N 0;
}

object triplex_node:263 {
	name 113186_RB_TX;
	parent 113186_RB_M;
	phases BS;
	nominal_voltage 120;
	latitude 48N49'8.002";
	longitude 122W52'56.542";
	power_1 3.33547976888877+0.101550568217926j;
	voltage_1 -60.000-103.923j;
	voltage_2 -60.000-103.923j;
	voltage_N 0;
}

object transformer:264  {
	phases "BS";
	from 113188;
	to 113188_RB_M;
	configuration transformer_configuration:69;
}

object triplex_meter:265 {
	name 113188_RB_M;
	phases "BS";
	nominal_voltage 120;
	voltage_1 -60.000-103.923j;