// $Id: R1-25.00-1.glm 228 2009-05-27 18:16:10Z ychen $ 
//*********************************************

clock { 
	 timezone PST+8PDT;
	 timestamp '2000-01-01 0:00:00';
}

//*********************************************
// modules
module powerflow;


object fuse:799 {
	name R1-25-00-1_fuse_1;
	phases "AN";
	from R1-25-00-1_node_183;
	to R1-25-00-1_node_11;
	current_limit 3000.0;
	status CLOSED;
}

object fuse:808 {
	name R1-25-00-1_fuse_2;
	phases "BN";
	from R1-25-00-1_node_28;
	to R1-25-00-1_node_20;
	current_limit 3000.0;
	status CLOSED;
}

object fuse:888 {
	name R1-25-00-1_fuse_3;
	phases "CN";
	from R1-25-00-1_node_99;
	to R1-25-00-1_node_100;
	current_limit 3000.0;
	status CLOSED;
}

object fuse:969 {
	name R1-25-00-1_fuse_4;
	phases "AN";
	from R1-25-00-1_node_180;
	to R1-25-00-1_node_181;
	current_limit 3000.0;
	status CLOSED;
}

object fuse:979 {
	name R1-25-00-1_fuse_5;
	phases "ABCN";
	from R1-25-00-1_node_188;
	to R1-25-00-1_node_190;
	current_limit 3000.0;
	status CLOSED;
}

object fuse:989 {
	name R1-25-00-1_fuse_6;
	phases "ABCN";
	from R1-25-00-1_node_199;
	to R1-25-00-1_node_200;
	current_limit 3000.0;
	status CLOSED;
}

object fuse:1001 {
	name R1-25-00-1_fuse_7;
	phases "CN";
	from R1-25-00-1_node_211;
	to R1-25-00-1_node_212;
	current_limit 3000.0;
	status CLOSED;
}

object fuse:1032 {
	name R1-25-00-1_fuse_8;
	phases "AN";
	from R1-25-00-1_node_242;
	to R1-25-00-1_node_243;
	current_limit 3000.0;
	status CLOSED;
}

object fuse:1037 {
	name R1-25-00-1_fuse_9;
	phases "ABCN";
	from R1-25-00-1_node_242;
	to R1-25-00-1_node_248;
	current_limit 3000.0;
	status CLOSED;
}

object fuse:1074 {
	name R1-25-00-1_fuse_10;
	phases "AN";
	from R1-25-00-1_node_279;
	to R1-25-00-1_node_285;
	current_limit 3000.0;
	status CLOSED;
}

object fuse:1085 {
	name R1-25-00-1_fuse_11;
	phases "AN";
	from R1-25-00-1_node_294;
	to R1-25-00-1_node_296;
	current_limit 3000.0;
	status CLOSED;
}

object fuse:1119 {
	name R1-25-00-1_fuse_12;
	phases "CN";
	from R1-25-00-1_node_29;
	to R1-25-00-1_node_27;
	current_limit 3000.0;
	status CLOSED;
}


object line_configuration:752 {
	conductor_A underground_line_conductor:43;
	conductor_N underground_line_conductor:43;
	spacing line_spacing:751;
}

object line_configuration:753 {
	conductor_A underground_line_conductor:44;
	conductor_N underground_line_conductor:44;
	spacing line_spacing:751;
}

object line_configuration:755 {
	conductor_A overhead_line_conductor:24;
	conductor_B overhead_line_conductor:24;
	conductor_C overhead_line_conductor:24;
	conductor_N overhead_line_conductor:24;
	spacing line_spacing:754;
}

object line_configuration:757 {
	conductor_B overhead_line_conductor:11;
	conductor_N overhead_line_conductor:11;
	spacing line_spacing:756;
}

object line_configuration:758 {
	conductor_B underground_line_conductor:44;
	conductor_N underground_line_conductor:44;
	spacing line_spacing:756;
}

object line_configuration:760 {
	conductor_C underground_line_conductor:44;
	conductor_N underground_line_conductor:44;
	spacing line_spacing:759;
}

object line_configuration:762 {
	conductor_A underground_line_conductor:44;
	conductor_B underground_line_conductor:44;
	conductor_C underground_line_conductor:44;
	conductor_N underground_line_conductor:44;
	spacing line_spacing:761;
}

object line_configuration:763 {
	conductor_A underground_line_conductor:49;
	conductor_B underground_line_conductor:49;
	conductor_C underground_line_conductor:49;
	conductor_N underground_line_conductor:49;
	spacing line_spacing:761;
}

object line_configuration:765 {
	conductor_C overhead_line_conductor:11;
	conductor_N overhead_line_conductor:11;
	spacing line_spacing:764;
}

object line_configuration:766 {
	conductor_A overhead_line_conductor:13;
	conductor_B overhead_line_conductor:13;
	conductor_C overhead_line_conductor:13;
	conductor_N overhead_line_conductor:13;
	spacing line_spacing:754;
}

object line_configuration:767 {
	conductor_A overhead_line_conductor:18;
	conductor_B overhead_line_conductor:18;
	conductor_C overhead_line_conductor:18;
	conductor_N overhead_line_conductor:18;
	spacing line_spacing:754;
}

object line_configuration:768 {
	conductor_A overhead_line_conductor:13;
	conductor_B overhead_line_conductor:13;
	conductor_C overhead_line_conductor:13;
	conductor_N overhead_line_conductor:13;
	spacing line_spacing:754;
}

object line_configuration:769 {
	conductor_A overhead_line_conductor:11;
	conductor_B overhead_line_conductor:11;
	conductor_C overhead_line_conductor:11;
	conductor_N overhead_line_conductor:11;
	spacing line_spacing:754;
}

object line_configuration:770 {
	conductor_A overhead_line_conductor:11;
	conductor_N overhead_line_conductor:11;
	spacing line_spacing:751;
}

object line_configuration:772 {
	conductor_A underground_line_conductor:44;
	conductor_N underground_line_conductor:44;
	spacing line_spacing:771;
}

object line_configuration:774 {
	conductor_A overhead_line_conductor:11;
	conductor_B overhead_line_conductor:11;
	conductor_N overhead_line_conductor:11;
	spacing line_spacing:773;
}

object line_configuration:775 {
	conductor_B overhead_line_conductor:11;
	conductor_N overhead_line_conductor:11;
	spacing line_spacing:756;
}

object line_configuration:777 {
	conductor_B underground_line_conductor:44;
	conductor_N underground_line_conductor:44;
	spacing line_spacing:776;
}

object line_configuration:779 {
	conductor_B overhead_line_conductor:13;
	conductor_C overhead_line_conductor:13;
	conductor_N overhead_line_conductor:13;
	spacing line_spacing:778;
}

object line_configuration:780 {
	conductor_C overhead_line_conductor:8;
	conductor_N overhead_line_conductor:8;
	spacing line_spacing:764;
}

object line_configuration:781 {
	conductor_C overhead_line_conductor:13;
	conductor_N overhead_line_conductor:13;
	spacing line_spacing:764;
}

object line_configuration:782 {
	conductor_C overhead_line_conductor:18;
	conductor_N overhead_line_conductor:18;
	spacing line_spacing:764;
}

object line_configuration:784 {
	conductor_C overhead_line_conductor:18;
	conductor_N overhead_line_conductor:18;
	spacing line_spacing:783;
}

object line_configuration:785 {
	conductor_C underground_line_conductor:43;
	conductor_N underground_line_conductor:43;
	spacing line_spacing:759;
}

object line_configuration:786 {
	conductor_A overhead_line_conductor:15;
	conductor_B overhead_line_conductor:15;
	conductor_C overhead_line_conductor:15;
	conductor_N overhead_line_conductor:15;
	spacing line_spacing:754;
}

object line_configuration:787 {
	conductor_A overhead_line_conductor:18;
	conductor_N overhead_line_conductor:18;
	spacing line_spacing:751;
}

object line_configuration:789 {
	conductor_A overhead_line_conductor:18;
	conductor_B overhead_line_conductor:18;
	conductor_C overhead_line_conductor:18;
	conductor_N overhead_line_conductor:18;
	spacing line_spacing:788;
}

object line_configuration:790 {
	conductor_B overhead_line_conductor:18;
	conductor_N overhead_line_conductor:18;
	spacing line_spacing:756;
}

object line_configuration:792 {
	conductor_A underground_line_conductor:44;
	conductor_C underground_line_conductor:44;
	conductor_N underground_line_conductor:44;
	spacing line_spacing:791;
}

object line_configuration:794 {
	conductor_A underground_line_conductor:44;
	conductor_C underground_line_conductor:44;
	conductor_N underground_line_conductor:44;
	spacing line_spacing:793;
}

object line_configuration:795 {
	conductor_A overhead_line_conductor:18;
	conductor_C overhead_line_conductor:18;
	conductor_N overhead_line_conductor:18;
	spacing line_spacing:791;
}

object line_configuration:796 {
	conductor_A overhead_line_conductor:11;
	conductor_C overhead_line_conductor:11;
	conductor_N overhead_line_conductor:11;
	spacing line_spacing:791;
}

object line_configuration:797 {
	conductor_A overhead_line_conductor:13;
	conductor_N overhead_line_conductor:13;
	spacing line_spacing:751;
}

object line_configuration:798 {
	conductor_C underground_line_conductor:43;
	conductor_N underground_line_conductor:43;
	spacing line_spacing:764;
}


object line_spacing:751 {
	distance_AN 84.0 in;
}

object line_spacing:754 {
	distance_AB 57.6 in;
	distance_BC 57.6 in;
	distance_AC 57.6 in;
	distance_AN 84.0 in;
	distance_BN 84.0 in;
	distance_CN 84.0 in;
}

object line_spacing:756 {
	distance_BN 84.0 in;
}

object line_spacing:759 {
	distance_CN 0.0 in;
}

object line_spacing:761 {
	distance_AB 0.0 in;
	distance_BC 0.0 in;
	distance_AC 0.0 in;
	distance_AN 0.0 in;
	distance_BN 0.0 in;
	distance_CN 0.0 in;
}

object line_spacing:764 {
	distance_CN 84.0 in;
}

object line_spacing:771 {
	distance_AN 0.0 in;
}

object line_spacing:773 {
	distance_AB 57.6 in;
	distance_AN 84.0 in;
	distance_BN 84.0 in;
}

object line_spacing:776 {
	distance_BN 0.0 in;
}

object line_spacing:778 {
	distance_BC 57.6 in;
	distance_BN 84.0 in;
	distance_CN 84.0 in;
}

object line_spacing:783 {
	distance_CN 51.6 in;
}

object line_spacing:788 {
	distance_AB 57.6 in;
	distance_BC 57.6 in;
	distance_AC 57.6 in;
	distance_AN 51.6 in;
	distance_BN 51.6 in;
	distance_CN 51.6 in;
}

object line_spacing:791 {
	distance_AC 57.6 in;
	distance_AN 84.0 in;
	distance_CN 84.0 in;
}

object line_spacing:793 {
	distance_AC 0.0 in;
	distance_AN 0.0 in;
	distance_CN 0.0 in;
}


object load {
	name R1-25-00-1_load_1;
	parent R1-25-00-1_meter_1;
	phases "ABCN";
	nominal_voltage 14376.022;
	voltage_A 14376.022+0.0j;
	voltage_B -7188.011-12450.000j;
	voltage_C -7188.011+12450.000j;
	constant_power_A 188.733+16909.569j;
	constant_power_B 1281.172+5916.236j;
	constant_power_C 1079.488+20486.629j;
	load_class "C";
}

object load {
	name R1-25-00-1_load_2;
	parent R1-25-00-1_meter_2;
	phases "ABCN";
	nominal_voltage 14376.022;
	voltage_A 14376.022+0.0j;
	voltage_B -7188.011-12450.000j;
	voltage_C -7188.011+12450.000j;
	constant_power_A 25.164+2254.609j;
	constant_power_B 427.057+1972.079j;
	constant_power_C 647.693+12291.978j;
	load_class "C";
}

object load {
	name R1-25-00-1_load_3;
	parent R1-25-00-1_meter_3;
	phases "ABCN";
	nominal_voltage 14376.022;
	voltage_A 14376.022+0.0j;
	voltage_B -7188.011-12450.000j;
	voltage_C -7188.011+12450.000j;
	constant_power_A 125.822+11273.046j;
	constant_power_B 854.114+3944.157j;
	constant_power_C 719.658+13657.753j;
	load_class "C";
}

object load {
	name R1-25-00-1_load_4;
	parent R1-25-00-1_meter_4;
	phases "ABCN";
	nominal_voltage 14376.022;
	voltage_A 14376.022+0.0j;
	voltage_B -7188.011-12450.000j;
	voltage_C -7188.011+12450.000j;
	constant_power_A 419.407+37576.895j;
	constant_power_B 2847.054+13147.217j;
	constant_power_C 2398.852+45525.661j;
	load_class "A";
}

object load {
	name R1-25-00-1_load_5;
	parent R1-25-00-1_meter_5;
	phases "ABCN";
	nominal_voltage 14376.022;
	voltage_A 14376.022+0.0j;
	voltage_B -7188.011-12450.000j;
	voltage_C -7188.011+12450.000j;
	constant_power_A 94.366+8454.784j;
	constant_power_B 640.586+2958.118j;
	constant_power_C 539.744+10243.315j;
	load_class "A";
}

object load {
	name R1-25-00-1_load_6;
	parent R1-25-00-1_meter_6;
	phases "ABCN";
	nominal_voltage 14376.022;
	voltage_A 14376.022+0.0j;
	voltage_B -7188.011-12450.000j;
	voltage_C -7188.011+12450.000j;
	constant_power_A 62.911+5636.523j;
	constant_power_B 427.057+1972.079j;
	constant_power_C 359.829+6828.876j;
	load_class "A";
}

object load {
	name R1-25-00-1_load_7;
	parent R1-25-00-1_meter_7;
	phases "ABCN";
	nominal_voltage 14376.022;
	voltage_A 14376.022+0.0j;
	voltage_B -7188.011-12450.000j;
	voltage_C -7188.011+12450.000j;
	constant_power_A 100.000+11300.000j;
	constant_power_B 900.000+3900.000j;
	constant_power_C 700.000+13700.000j;
	load_class "I";
}

object load {
	name R1-25-00-1_load_8;
	parent R1-25-00-1_meter_8;
	phases "ABCN";
	nominal_voltage 14376.022;
	voltage_A 14376.022+0.0j;
	voltage_B -7188.011-12450.000j;
	voltage_C -7188.011+12450.000j;
	constant_power_A 504000.000+200000.000j;
	constant_power_B 504000.000+200000.000j;
	constant_power_C 504000.000+200000.000j;
	load_class "I";
}

object load {
	name R1-25-00-1_load_9;
	parent R1-25-00-1_meter_9;
	phases "ABCN";
	nominal_voltage 14376.022;
	voltage_A 14376.022+0.0j;
	voltage_B -7188.011-12450.000j;
	voltage_C -7188.011+12450.000j;
	constant_power_A 1677.624+150307.354j;
	constant_power_B 11388.199+52588.789j;
	constant_power_C 9595.436+182103.191j;
	load_class "I";
}

object load {
	name R1-25-00-1_load_10;
	parent R1-25-00-1_meter_10;
	phases "ABCN";
	nominal_voltage 14376.022;
	voltage_A 14376.022+0.0j;
	voltage_B -7188.011-12450.000j;
	voltage_C -7188.011+12450.000j;
	constant_power_A 1258.218+112730.459j;
	constant_power_B 8541.145+39441.572j;
	constant_power_C 7196.584+136577.530j;
	load_class "I";
}

object load {
	name R1-25-00-1_load_11;
	parent R1-25-00-1_meter_11;
	phases "ABCN";
	nominal_voltage 14376.022;
	voltage_A 14376.022+0.0j;
	voltage_B -7188.011-12450.000j;
	voltage_C -7188.011+12450.000j;
	constant_power_A 125.822+11273.046j;
	constant_power_B 640.586+2958.118j;
	constant_power_C 719.658+13657.753j;
	load_class "C";
}


object meter:156 {
	name R1-25-00-1_meter_1;
	phases "ABCN";
	nominal_voltage 14376.022;
	voltage_A 14376.022+0.0j;
	voltage_B -7188.011-12450.000j;
	voltage_C -7188.011+12450.000j;
}

object meter:158 {
	name R1-25-00-1_meter_2;
	phases "ABCN";
	nominal_voltage 14376.022;
	voltage_A 14376.022+0.0j;
	voltage_B -7188.011-12450.000j;
	voltage_C -7188.011+12450.000j;
}

object meter:160 {
	name R1-25-00-1_meter_3;
	phases "ABCN";
	nominal_voltage 14376.022;
	voltage_A 14376.022+0.0j;
	voltage_B -7188.011-12450.000j;
	voltage_C -7188.011+12450.000j;
}

object meter:162 {
	name R1-25-00-1_meter_4;
	phases "ABCN";
	nominal_voltage 14376.022;
	voltage_A 14376.022+0.0j;
	voltage_B -7188.011-12450.000j;
	voltage_C -7188.011+12450.000j;
}

object meter:164 {
	name R1-25-00-1_meter_5;
	phases "ABCN";
	nominal_voltage 14376.022;
	voltage_A 14376.022+0.0j;
	voltage_B -7188.011-12450.000j;
	voltage_C -7188.011+12450.000j;
}

object meter:202 {
	name R1-25-00-1_meter_6;
	phases "ABCN";
	nominal_voltage 14376.022;
	voltage_A 14376.022+0.0j;
	voltage_B -7188.011-12450.000j;
	voltage_C -7188.011+12450.000j;
}

object meter:216 {
	name R1-25-00-1_meter_7;
	phases "ABCN";
	nominal_voltage 14376.022;
	voltage_A 14376.022+0.0j;
	voltage_B -7188.011-12450.000j;
	voltage_C -7188.011+12450.000j;
}

object meter:218 {
	name R1-25-00-1_meter_8;
	phases "ABCN";
	nominal_voltage 14376.022;
	voltage_A 14376.022+0.0j;
	voltage_B -7188.011-12450.000j;
	voltage_C -7188.011+12450.000j;
}

object meter:220 {
	name R1-25-00-1_meter_9;
	phases "ABCN";
	nominal_voltage 14376.022;
	voltage_A 14376.022+0.0j;
	voltage_B -7188.011-12450.000j;
	voltage_C -7188.011+12450.000j;
}

object meter:222 {
	name R1-25-00-1_meter_10;
	phases "ABCN";
	nominal_voltage 14376.022;
	voltage_A 14376.022+0.0j;
	voltage_B -7188.011-12450.000j;
	voltage_C -7188.011+12450.000j;
}

object meter:230 {
	name R1-25-00-1_meter_11;
	phases "ABCN";
	nominal_voltage 14376.022;
	voltage_A 14376.022+0.0j;
	voltage_B -7188.011-12450.000j;
	voltage_C -7188.011+12450.000j;
}

// Meter at feeder
object meter:398 {
	name R1-25-00-1_meter_12;
	phases "ABCN";
	nominal_voltage 14376.022;
	voltage_A 14376.022+0.0j;
	voltage_B -7188.011-12450.000j;
	voltage_C -7188.011+12450.000j;
}


object node:352 {
	name R1-25-00-1_node_1;
	phases "BN";
	nominal_voltage 14376.022;
	voltage_B -7188.011-12450.000j;
}

object node:353 {
	name R1-25-00-1_node_2;
	phases "BN";
	nominal_voltage 14376.022;
	voltage_B -7188.011-12450.000j;
}

object node:354 {
	name R1-25-00-1_node_3;
	phases "CN";
	nominal_voltage 14376.022;
	voltage_C -7188.011+12450.000j;
}

object node:356 {
	name R1-25-00-1_node_4;
	phases "AN";
	nominal_voltage 14376.022;
	voltage_A 14376.022+0.0j;
}

object node:357 {
	name R1-25-00-1_node_5;
	phases "ABCN";
	nominal_voltage 14376.022;
	voltage_A 14376.022+0.0j;
	voltage_B -7188.011-12450.000j;
	voltage_C -7188.011+12450.000j;
}

object node:358 {
	name R1-25-00-1_node_6;
	phases "CN";
	nominal_voltage 14376.022;
	voltage_C -7188.011+12450.000j;
}

object node:360 {
	name R1-25-00-1_node_7;
	phases "BN";
	nominal_voltage 14376.022;
	voltage_B -7188.011-12450.000j;
}

object node:361 {
	name R1-25-00-1_node_8;
	phases "BN";
	nominal_voltage 14376.022;
	voltage_B -7188.011-12450.000j;
}

object node:363 {
	name R1-25-00-1_node_9;
	phases "ABCN";
	nominal_voltage 14376.022;
	voltage_A 14376.022+0.0j;
	voltage_B -7188.011-12450.000j;
	voltage_C -7188.011+12450.000j;
}

object node:366 {
	name R1-25-00-1_node_10;
	phases "BN";
	nominal_voltage 14376.022;
	voltage_B -7188.011-12450.000j;
}

object node:367 {
	name R1-25-00-1_node_11;
	phases "AN";
	nominal_voltage 14376.022;
	voltage_A 14376.022+0.0j;
}

object node:370 {
	name R1-25-00-1_node_12;
	phases "AN";
	nominal_voltage 14376.022;
	voltage_A 14376.022+0.0j;
}

object node:372 {
	name R1-25-00-1_node_13;
	phases "CN";
	nominal_voltage 14376.022;
	voltage_C -7188.011+12450.000j;
}

object node:371 {
	name R1-25-00-1_node_14;
	phases "AN";
	nominal_voltage 14376.022;
	voltage_A 14376.022+0.0j;
}

object node:374 {
	name R1-25-00-1_node_15;
	phases "AN";
	nominal_voltage 14376.022;
	voltage_A 14376.022+0.0j;
}

object node:375 {
	name R1-25-00-1_node_16;
	phases "ABCN";
	nominal_voltage 14376.022;
	voltage_A 14376.022+0.0j;
	voltage_B -7188.011-12450.000j;
	voltage_C -7188.011+12450.000j;
}

object node:376 {
	name R1-25-00-1_node_17;
	phases "AN";
	nominal_voltage 14376.022;
	voltage_A 14376.022+0.0j;
}

object node:377 {
	name R1-25-00-1_node_18;
	phases "BN";
	nominal_voltage 14376.022;
	voltage_B -7188.011-12450.000j;
}

object node:379 {
	name R1-25-00-1_node_19;
	phases "BN";
	nominal_voltage 14376.022;
	voltage_B -7188.011-12450.000j;
}

object node:380 {
	name R1-25-00-1_node_20;
	phases "BN";
	nominal_voltage 14376.022;
	voltage_B -7188.011-12450.000j;
}

object node:381 {
	name R1-25-00-1_node_21;
	phases "BN";
	nominal_voltage 14376.022;
	voltage_B -7188.011-12450.000j;
}

object node:382 {
	name R1-25-00-1_node_22;
	phases "AN";
	nominal_voltage 14376.022;
	voltage_A 14376.022+0.0j;
}

object node:383 {
	name R1-25-00-1_node_23;
	phases "CN";
	nominal_voltage 14376.022;
	voltage_C -7188.011+12450.000j;
}

object node:384 {
	name R1-25-00-1_node_24;
	phases "CN";
	nominal_voltage 14376.022;
	voltage_C -7188.011+12450.000j;
}

object node:385 {
	name R1-25-00-1_node_25;
	phases "CN";
	nominal_voltage 14376.022;
	voltage_C -7188.011+12450.000j;
}

object node:386 {
	name R1-25-00-1_node_26;
	phases "AN";
	nominal_voltage 14376.022;
	voltage_A 14376.022+0.0j;
}

object node:387 {
	name R1-25-00-1_node_27;
	phases "CN";
	nominal_voltage 14376.022;
	voltage_C -7188.011+12450.000j;
}

object node:389 {
	name R1-25-00-1_node_28;
	phases "BN";
	nominal_voltage 14376.022;
	voltage_B -7188.011-12450.000j;
}

object node:391 {
	name R1-25-00-1_node_29;
	phases "CN";
	nominal_voltage 14376.022;
	voltage_C -7188.011+12450.000j;
}

object node:392 {
	name R1-25-00-1_node_30;
	phases "CN";
	nominal_voltage 14376.022;
	voltage_C -7188.011+12450.000j;
}

object node:393 {
	name R1-25-00-1_node_31;
	phases "BN";
	nominal_voltage 14376.022;
	voltage_B -7188.011-12450.000j;
}

object node:394 {
	name R1-25-00-1_node_32;
	phases "ABCN";
	nominal_voltage 14376.022;
	voltage_A 14376.022+0.0j;
	voltage_B -7188.011-12450.000j;
	voltage_C -7188.011+12450.000j;
}

object node:395 {
	name R1-25-00-1_node_33;
	phases "BN";
	nominal_voltage 14376.022;
	voltage_B -7188.011-12450.000j;
}

object node:396 {
	name R1-25-00-1_node_34;
	phases "BN";
	nominal_voltage 14376.022;
	voltage_B -7188.011-12450.000j;
}

object node:397 {
	name R1-25-00-1_node_35;
	phases "AN";
	nominal_voltage 14376.022;
	voltage_A 14376.022+0.0j;
}

object node:399 {
	name R1-25-00-1_node_36;
	phases "ABCN";
	nominal_voltage 14376.022;
	voltage_A 14376.022+0.0j;
	voltage_B -7188.011-12450.000j;
	voltage_C -7188.011+12450.000j;
}

object node:400 {
	name R1-25-00-1_node_37;
	phases "ABCN";
	nominal_voltage 14376.022;
	voltage_A 14376.022+0.0j;
	voltage_B -7188.011-12450.000j;
	voltage_C -7188.011+12450.000j;
}

object node:401 {
	name R1-25-00-1_node_38;
	phases "ABCN";
	nominal_voltage 14376.022;
	voltage_A 14376.022+0.0j;
	voltage_B -7188.011-12450.000j;
	voltage_C -7188.011+12450.000j;
}

object node:402 {
	name R1-25-00-1_node_39;
	phases "CN";
	nominal_voltage 14376.022;
	voltage_C -7188.011+12450.000j;
}

object node:403 {
	name R1-25-00-1_node_40;
	phases "ABCN";
	nominal_voltage 14376.022;
	voltage_A 14376.022+0.0j;
	voltage_B -7188.011-12450.000j;
	voltage_C -7188.011+12450.000j;
}

object node:404 {
	name R1-25-00-1_node_41;
	phases "CN";
	nominal_voltage 14376.022;
	voltage_C -7188.011+12450.000j;
}

object node:405 {
	name R1-25-00-1_node_42;
	phases "CN";
	nominal_voltage 14376.022;
	voltage_C -7188.011+12450.000j;
}

object node:406 {
	name R1-25-00-1_node_43;
	phases "CN";
	nominal_voltage 14376.022;
	voltage_C -7188.011+12450.000j;
}

object node:407 {
	name R1-25-00-1_node_44;
	phases "CN";
	nominal_voltage 14376.022;
	voltage_C -7188.011+12450.000j;
}

object node:408 {
	name R1-25-00-1_node_45;
	phases "ABCN";
	nominal_voltage 14376.022;
	voltage_A 14376.022+0.0j;
	voltage_B -7188.011-12450.000j;
	voltage_C -7188.011+12450.000j;
}

object node:410 {
	name R1-25-00-1_node_46;
	phases "ABCN";
	nominal_voltage 14376.022;
	voltage_A 14376.022+0.0j;
	voltage_B -7188.011-12450.000j;
	voltage_C -7188.011+12450.000j;
}

object node:411 {
	name R1-25-00-1_node_47;
	phases "ABCN";
	nominal_voltage 14376.022;
	voltage_A 14376.022+0.0j;
	voltage_B -7188.011-12450.000j;
	voltage_C -7188.011+12450.000j;
}

object node:413 {
	name R1-25-00-1_node_48;
	phases "ABCN";
	nominal_voltage 14376.022;
	voltage_A 14376.022+0.0j;
	voltage_B -7188.011-12450.000j;
	voltage_C -7188.011+12450.000j;
}

object node:414 {
	name R1-25-00-1_node_49;
	phases "ABCN";
	nominal_voltage 14376.022;
	voltage_A 14376.022+0.0j;
	voltage_B -7188.011-12450.000j;
	voltage_C -7188.011+12450.000j;
}

object node:415 {
	name R1-25-00-1_node_50;
	phases "ABCN";
	nominal_voltage 14376.022;
	voltage_A 14376.022+0.0j;
	voltage_B -7188.011-12450.000j;
	voltage_C -7188.011+12450.000j;
}

object node:416 {
	name R1-25-00-1_node_51;
	phases "ABCN";
	nominal_voltage 14376.022;
	voltage_A 14376.022+0.0j;
	voltage_B -7188.011-12450.000j;
	voltage_C -7188.011+12450.000j;
}

object node:417 {
	name R1-25-00-1_node_52;
	phases "ABCN";
	nominal_voltage 14376.022;
	voltage_A 14376.022+0.0j;
	voltage_B -7188.011-12450.000j;
	voltage_C -7188.011+12450.000j;
}

object node:418 {
	name R1-25-00-1_node_53;
	phases "ABCN";
	nominal_voltage 14376.022;
	voltage_A 14376.022+0.0j;
	voltage_B -7188.011-12450.000j;
	voltage_C -7188.011+12450.000j;
}

object node:419 {
	name R1-25-00-1_node_54;
	phases "ABCN";
	nominal_voltage 14376.022;
	voltage_A 14376.022+0.0j;
	voltage_B -7188.011-12450.000j;
	voltage_C -7188.011+12450.000j;
}

object node:420 {
	name R1-25-00-1_node_55;
	phases "CN";
	nominal_voltage 14376.022;
	voltage_C -7188.011+12450.000j;
}

object node:421 {
	name R1-25-00-1_node_56;
	phases "ABCN";
	nominal_voltage 14376.022;
	voltage_A 14376.022+0.0j;
	voltage_B -7188.011-12450.000j;
	voltage_C -7188.011+12450.000j;
}

object node:422 {
	name R1-25-00-1_node_57;
	phases "ABCN";
	nominal_voltage 14376.022;
	voltage_A 14376.022+0.0j;
	voltage_B -7188.011-12450.000j;
	voltage_C -7188.011+12450.000j;
}

object node:423 {
	name R1-25-00-1_node_58;
	phases "ABCN";
	nominal_voltage 14376.022;
	voltage_A 14376.022+0.0j;
	voltage_B -7188.011-12450.000j;
	voltage_C -7188.011+12450.000j;
}

object node:424 {
	name R1-25-00-1_node_59;
	phases "ABCN";
	nominal_voltage 14376.022;
	voltage_A 14376.022+0.0j;
	voltage_B -7188.011-12450.000j;
	voltage_C -7188.011+12450.000j;
}

object node:425 {
	name R1-25-00-1_node_60;
	phases "ABCN";
	nominal_voltage 14376.022;
	voltage_A 14376.022+0.0j;
	voltage_B -7188.011-12450.000j;
	voltage_C -7188.011+12450.000j;
}

object node:427 {
	name R1-25-00-1_node_61;
	phases "ABCN";
	nominal_voltage 14376.022;
	voltage_A 14376.022+0.0j;
	voltage_B -7188.011-12450.000j;
	voltage_C -7188.011+12450.000j;
}

object node:428 {
	name R1-25-00-1_node_62;
	phases "ABCN";
	nominal_voltage 14376.022;
	voltage_A 14376.022+0.0j;
	voltage_B -7188.011-12450.000j;
	voltage_C -7188.011+12450.000j;
}

object node:429 {
	name R1-25-00-1_node_63;
	phases "ABCN";
	nominal_voltage 14376.022;
	voltage_A 14376.022+0.0j;
	voltage_B -7188.011-12450.000j;
	voltage_C -7188.011+12450.000j;
}

object node:430 {
	name R1-25-00-1_node_64;
	phases "ABCN";
	nominal_voltage 14376.022;
	voltage_A 14376.022+0.0j;
	voltage_B -7188.011-12450.000j;
	voltage_C -7188.011+12450.000j;
}

object node:431 {
	name R1-25-00-1_node_65;
	phases "ABCN";
	nominal_voltage 14376.022;
	voltage_A 14376.022+0.0j;
	voltage_B -7188.011-12450.000j;
	voltage_C -7188.011+12450.000j;
}

object node:433 {
	name R1-25-00-1_node_66;
	phases "ABCN";
	nominal_voltage 14376.022;
	voltage_A 14376.022+0.0j;
	voltage_B -7188.011-12450.000j;
	voltage_C -7188.011+12450.000j;
}

object node:434 {
	name R1-25-00-1_node_67;
	phases "ABCN";
	nominal_voltage 14376.022;
	voltage_A 14376.022+0.0j;
	voltage_B -7188.011-12450.000j;
	voltage_C -7188.011+12450.000j;
}

object node:438 {
	name R1-25-00-1_node_68;
	phases "ABCN";
	nominal_voltage 14376.022;
	voltage_A 14376.022+0.0j;
	voltage_B -7188.011-12450.000j;
	voltage_C -7188.011+12450.000j;
}

object node:439 {
	name R1-25-00-1_node_69;
	phases "ABCN";
	nominal_voltage 14376.022;
	voltage_A 14376.022+0.0j;
	voltage_B -7188.011-12450.000j;
	voltage_C -7188.011+12450.000j;
}

object node:441 {
	name R1-25-00-1_node_70;
	phases "AN";
	nominal_voltage 14376.022;
	voltage_A 14376.022+0.0j;
}

object node:442 {
	name R1-25-00-1_node_71;
	phases "AN";
	nominal_voltage 14376.022;
	voltage_A 14376.022+0.0j;
}

object node:444 {
	name R1-25-00-1_node_72;
	phases "AN";
	nominal_voltage 14376.022;
	voltage_A 14376.022+0.0j;
}

object node:446 {
	name R1-25-00-1_node_73;
	phases "AN";
	nominal_voltage 14376.022;
	voltage_A 14376.022+0.0j;
}

object node:447 {
	name R1-25-00-1_node_74;
	phases "AN";
	nominal_voltage 14376.022;
	voltage_A 14376.022+0.0j;
}

object node:449 {
	name R1-25-00-1_node_75;
	phases "AN";
	nominal_voltage 14376.022;
	voltage_A 14376.022+0.0j;
}

object node:452 {
	name R1-25-00-1_node_76;
	phases "AN";
	nominal_voltage 14376.022;
	voltage_A 14376.022+0.0j;
}

object node:453 {
	name R1-25-00-1_node_77;
	phases "AN";
	nominal_voltage 14376.022;
	voltage_A 14376.022+0.0j;
}

object node:455 {
	name R1-25-00-1_node_78;
	phases "AN";
	nominal_voltage 14376.022;
	voltage_A 14376.022+0.0j;
}

object node:456 {
	name R1-25-00-1_node_79;
	phases "AN";
	nominal_voltage 14376.022;
	voltage_A 14376.022+0.0j;
}

object node:458 {
	name R1-25-00-1_node_80;
	phases "AN";
	nominal_voltage 14376.022;
	voltage_A 14376.022+0.0j;
}

object node:460 {
	name R1-25-00-1_node_81;
	phases "AN";
	nominal_voltage 14376.022;
	voltage_A 14376.022+0.0j;
}

object node:461 {
	name R1-25-00-1_node_82;
	phases "ABCN";
	nominal_voltage 14376.022;
	voltage_A 14376.022+0.0j;
	voltage_B -7188.011-12450.000j;
	voltage_C -7188.011+12450.000j;
}

object node:462 {
	name R1-25-00-1_node_83;
	phases "ABCN";
	nominal_voltage 14376.022;
	voltage_A 14376.022+0.0j;
	voltage_B -7188.011-12450.000j;
	voltage_C -7188.011+12450.000j;
}

object node:463 {
	name R1-25-00-1_node_84;
	phases "ABCN";
	nominal_voltage 14376.022;
	voltage_A 14376.022+0.0j;
	voltage_B -7188.011-12450.000j;
	voltage_C -7188.011+12450.000j;
}

object node:464 {
	name R1-25-00-1_node_85;
	phases "ABN";
	nominal_voltage 14376.022;
	voltage_A 14376.022+0.0j;
	voltage_B -7188.011-12450.000j;
}

object node:465 {
	name R1-25-00-1_node_86;
	phases "ABCN";
	nominal_voltage 14376.022;
	voltage_A 14376.022+0.0j;
	voltage_B -7188.011-12450.000j;
	voltage_C -7188.011+12450.000j;
}

object node:467 {
	name R1-25-00-1_node_87;
	phases "ABCN";
	nominal_voltage 14376.022;
	voltage_A 14376.022+0.0j;
	voltage_B -7188.011-12450.000j;
	voltage_C -7188.011+12450.000j;
}

object node:468 {
	name R1-25-00-1_node_88;
	phases "ABCN";
	nominal_voltage 14376.022;
	voltage_A 14376.022+0.0j;
	voltage_B -7188.011-12450.000j;
	voltage_C -7188.011+12450.000j;
}

object node:469 {
	name R1-25-00-1_node_89;
	phases "BN";
	nominal_voltage 14376.022;
	voltage_B -7188.011-12450.000j;
}

object node:472 {
	name R1-25-00-1_node_90;
	phases "BN";
	nominal_voltage 14376.022;
	voltage_B -7188.011-12450.000j;
}

object node:473 {
	name R1-25-00-1_node_91;
	phases "ABCN";
	nominal_voltage 14376.022;
	voltage_A 14376.022+0.0j;