//*********************************************
// $Id: R1-25.00-1.glm 1132 2008-11-18 22:36:10Z dchassin $ 
//*********************************************

clock { 
	 timezone PST+8PDT;
}	 timestamp '2000-01-01 0:00:00';


//*********************************************
// modules
module powerflow;


object triplex_line_conductor: {
	name 1/0 AA triplex;
	resistance 0.97;
	geometric_mean_radius 0.0111;
}

object triplex_line_configuration:1 {
	conductor_1 1/0 AA triplex;
	conductor_2 1/0 AA triplex;
	conductor_N 1/0 AA triplex;
	insulation_thickness 0.08;
	diameter 0.368;
}

object transformer:131  {
	phases "AS";
	from Node_1221117793;
	to Node_1221117793_AA_M;
	configuration transformer_configuration:51;
}

object triplex_meter:132 {
	name Node_1221117793_AA_M;
	phases "AS";
	nominal_voltage 120;
	voltage_1 120;
	voltage_2 120;
	voltage_N 0;
}

object triplex_node:133 {
	name Node_1221117793_AA_TX;
	parent Node_1221117793_AA_M;
	phases AS;
	nominal_voltage 120;
	latitude 48N32'44.509";
	longitude 123W43'17.005";
	power_1 0.0629108836799503+5.63652296154129j;
	voltage_1 120;
	voltage_2 120;
	voltage_N 0;
}

object transformer:134  {
	phases "AS";
	from Node_1221118186;
	to Node_1221118186_AA_M;
	configuration transformer_configuration:51;
}

object triplex_meter:135 {
	name Node_1221118186_AA_M;
	phases "AS";
	nominal_voltage 120;
	voltage_1 120;
	voltage_2 120;
	voltage_N 0;
}

object triplex_node:136 {
	name Node_1221118186_AA_TX;
	parent Node_1221118186_AA_M;
	phases AS;
	nominal_voltage 120;
	latitude 48N32'50.338";
	longitude 123W43'10.934";
	power_1 0.0629108836799503+5.63652296154129j;
	voltage_1 120;
	voltage_2 120;
	voltage_N 0;
}

object transformer:137  {
	phases "AS";
	from Node_12211188710;
	to Node_12211188710_AA_M;
	configuration transformer_configuration:51;
}

object triplex_meter:138 {
	name Node_12211188710_AA_M;
	phases "AS";
	nominal_voltage 120;
	voltage_1 120;
	voltage_2 120;
	voltage_N 0;
}

object triplex_node:139 {
	name Node_12211188710_AA_TX;
	parent Node_12211188710_AA_M;
	phases AS;
	nominal_voltage 120;
	latitude 48N32'45.001";
	longitude 123W43'55.449";
	power_1 0.0629108836799503+5.63652296154129j;
	voltage_1 120;
	voltage_2 120;
	voltage_N 0;
}

object transformer:140  {
	phases "AS";
	from Node_12211208712;
	to Node_12211208712_AA_M;
	configuration transformer_configuration:51;
}

object triplex_meter:141 {
	name Node_12211208712_AA_M;
	phases "AS";
	nominal_voltage 120;
	voltage_1 120;
	voltage_2 120;
	voltage_N 0;
}

object triplex_node:142 {
	name Node_12211208712_AA_TX;
	parent Node_12211208712_AA_M;
	phases AS;
	nominal_voltage 120;
	latitude 48N30'21.931";
	longitude 123W50'47.969";
	power_1 0.0629108836799503+5.63652296154129j;
	voltage_1 120;
	voltage_2 120;
	voltage_N 0;
}

object transformer:143  {
	phases "BS";
	from Node_1926241080;
	to Node_1926241080_AB_M;
	configuration transformer_configuration:69;
}

object triplex_meter:144 {
	name Node_1926241080_AB_M;
	phases "BS";
	nominal_voltage 120;
	voltage_1 -60.000-103.923j;
	voltage_2 -60.000-103.923j;
	voltage_N 0;
}

object triplex_node:145 {
	name Node_1926241080_AB_TX;
	parent Node_1926241080_AB_M;
	phases BS;
	nominal_voltage 120;
	latitude 48N37'59.305";
	longitude 123W47'51.652";
	power_1 0.427057248491999+1.97207860307461j;
	voltage_1 -60.000-103.923j;
	voltage_2 -60.000-103.923j;
	voltage_N 0;
}

object transformer:146  {
	phases "BS";
	from Node_13119918711;
	to Node_13119918711_AB_M;
	configuration transformer_configuration:69;
}

object triplex_meter:147 {
	name Node_13119918711_AB_M;
	phases "BS";
	nominal_voltage 120;
	voltage_1 -60.000-103.923j;
	voltage_2 -60.000-103.923j;
	voltage_N 0;
}

object triplex_node:148 {
	name Node_13119918711_AB_TX;
	parent Node_13119918711_AB_M;
	phases BS;
	nominal_voltage 120;
	latitude 48N38'1.651";
	longitude 123W47'46.099";
	power_1 0.427057248491999+1.97207860307461j;
	voltage_1 -60.000-103.923j;
	voltage_2 -60.000-103.923j;
	voltage_N 0;
}

object transformer:149  {
	phases "BS";
	from Node_13119929827;
	to Node_13119929827_AB_M;
	configuration transformer_configuration:69;
}

object triplex_meter:150 {
	name Node_13119929827_AB_M;
	phases "BS";
	nominal_voltage 120;
	voltage_1 -60.000-103.923j;
	voltage_2 -60.000-103.923j;
	voltage_N 0;
}

object triplex_node:151 {
	name Node_13119929827_AB_TX;
	parent Node_13119929827_AB_M;
	phases BS;
	nominal_voltage 120;
	latitude 48N37'38.390";
	longitude 123W46'56.682";
	power_1 0.427057248491999+1.97207860307461j;
	voltage_1 -60.000-103.923j;
	voltage_2 -60.000-103.923j;
	voltage_N 0;
}

object transformer:152  {
	phases "AS";
	from Node_13119976131;
	to Node_13119976131_AA_M;
	configuration transformer_configuration:51;
}

object triplex_meter:153 {
	name Node_13119976131_AA_M;
	phases "AS";
	nominal_voltage 120;
	voltage_1 120;
	voltage_2 120;
	voltage_N 0;
}

object triplex_node:154 {
	name Node_13119976131_AA_TX;
	parent Node_13119976131_AA_M;
	phases AS;
	nominal_voltage 120;
	latitude 48N32'39.930";
	longitude 123W44'17.684";
	power_1 0.0629108836799503+5.63652296154129j;
	voltage_1 120;
	voltage_2 120;
	voltage_N 0;
}

object transformer:155  {
	phases "A|B|C|N";
	from Node_14492319929;
	to Node_14492319929_C_M;
	configuration transformer_configuration:103;
}

object meter:156 {
	name Node_14492319929_C_M;
	phases "ABCN";
	nominal_voltage 14376.022;
	voltage_A 14376.022+0.0j;
	voltage_B -7188.011-12450.000j;
	voltage_C -7188.011+12450.000j;
}
object transformer:157  {
	phases "A|B|C|N";
	from 221022;
	to 221022_C_M;
	configuration transformer_configuration:105;
}

object meter:158 {
	name 221022_C_M;
	phases "ABCN";
	nominal_voltage 14376.022;
	voltage_A 14376.022+0.0j;
	voltage_B -7188.011-12450.000j;
	voltage_C -7188.011+12450.000j;
}
object transformer:159  {
	phases "A|B|C|N";
	from 221028;
	to 221028_C_M;
	configuration transformer_configuration:106;
}

object meter:160 {
	name 221028_C_M;
	phases "ABCN";
	nominal_voltage 14376.022;
	voltage_A 14376.022+0.0j;
	voltage_B -7188.011-12450.000j;
	voltage_C -7188.011+12450.000j;
}
object transformer:161  {
	phases "A|B|C|N";
	from 221064;
	to 221064_A_M;
	configuration transformer_configuration:107;
}

object meter:162 {
	name 221064_A_M;
	phases "ABCN";
	nominal_voltage 14376.022;
	voltage_A 14376.022+0.0j;
	voltage_B -7188.011-12450.000j;
	voltage_C -7188.011+12450.000j;
}
object transformer:163  {
	phases "A|B|C|N";
	from 221088;
	to 221088_A_M;
	configuration transformer_configuration:108;
}

object meter:164 {
	name 221088_A_M;
	phases "ABCN";
	nominal_voltage 14376.022;
	voltage_A 14376.022+0.0j;
	voltage_B -7188.011-12450.000j;
	voltage_C -7188.011+12450.000j;
}
object transformer:165  {
	phases "AS";
	from 221092;
	to 221092_RA_M;
	configuration transformer_configuration:57;
}

object triplex_meter:166 {
	name 221092_RA_M;
	phases "AS";
	nominal_voltage 120;
	voltage_1 120;
	voltage_2 120;
	voltage_N 0;
}

object triplex_node:167 {
	name 221092_RA_TX;
	parent 221092_RA_M;
	phases AS;
	nominal_voltage 120;
	latitude 48N39'20.945";
	longitude 123W49'54.894";
	power_1 0.0629108836799503+5.63652296154129j;
	voltage_1 120;
	voltage_2 120;
	voltage_N 0;
}

object transformer:168  {
	phases "BS";
	from 221092;
	to 221092_RB_M;
	configuration transformer_configuration:71;
}

object triplex_meter:169 {
	name 221092_RB_M;
	phases "BS";
	nominal_voltage 120;
	voltage_1 -60.000-103.923j;
	voltage_2 -60.000-103.923j;
	voltage_N 0;
}

object triplex_node:170 {
	name 221092_RB_TX;
	parent 221092_RB_M;
	phases BS;
	nominal_voltage 120;
	latitude 48N39'20.945";
	longitude 123W49'54.894";
	power_1 0.427057248491999+1.97207860307461j;
	voltage_1 -60.000-103.923j;
	voltage_2 -60.000-103.923j;
	voltage_N 0;
}

object transformer:171  {
	phases "CS";
	from 221092;
	to 221092_RC_M;
	configuration transformer_configuration:88;
}

object triplex_meter:172 {
	name 221092_RC_M;
	phases "CS";
	nominal_voltage 120;
	voltage_1 -60.000+103.923j;
	voltage_2 -60.000+103.923j;
	voltage_N 0;
}

object triplex_node:173 {
	name 221092_RC_TX;
	parent 221092_RC_M;
	phases CS;
	nominal_voltage 120;
	latitude 48N39'20.945";
	longitude 123W49'54.894";
	power_1 0.35982920829238+6.82887648075548j;
	voltage_1 -60.000+103.923j;
	voltage_2 -60.000+103.923j;
	voltage_N 0;
}

object transformer:174  {
	phases "AS";
	from 221096;
	to 221096_RA_M;
	configuration transformer_configuration:58;
}

object triplex_meter:175 {
	name 221096_RA_M;
	phases "AS";
	nominal_voltage 120;
	voltage_1 120;
	voltage_2 120;
	voltage_N 0;
}

object triplex_node:176 {
	name 221096_RA_TX;
	parent 221096_RA_M;
	phases AS;
	nominal_voltage 120;
	latitude 48N39'8.096";
	longitude 123W49'49.235";
	power_1 0.188732651039851+16.9095688846239j;
	voltage_1 120;
	voltage_2 120;
	voltage_N 0;
}

object transformer:177  {
	phases "AS";
	from 221100;
	to 221100_RA_M;
	configuration transformer_configuration:51;
}

object triplex_meter:178 {
	name 221100_RA_M;
	phases "AS";
	nominal_voltage 120;
	voltage_1 120;
	voltage_2 120;
	voltage_N 0;
}

object triplex_node:179 {
	name 221100_RA_TX;
	parent 221100_RA_M;
	phases AS;
	nominal_voltage 120;
	latitude 48N39'10.847";
	longitude 123W49'55.837";
	power_1 0.0629108836799503+5.63652296154129j;
	voltage_1 120;
	voltage_2 120;
	voltage_N 0;
}

object transformer:180  {
	phases "AS";
	from 221102;
	to 221102_RA_M;
	configuration transformer_configuration:59;
}

object triplex_meter:181 {
	name 221102_RA_M;
	phases "AS";
	nominal_voltage 120;
	voltage_1 120;
	voltage_2 120;
	voltage_N 0;
}

object triplex_node:182 {
	name 221102_RA_TX;
	parent 221102_RA_M;
	phases AS;
	nominal_voltage 120;
	latitude 48N39'8.604";
	longitude 123W50'2.645";
	power_1 0.0377465302079702+3.38191377692477j;
	voltage_1 120;
	voltage_2 120;
	voltage_N 0;
}

object transformer:183  {
	phases "AS";
	from 221104;
	to 221104_RA_M;
	configuration transformer_configuration:57;
}

object triplex_meter:184 {
	name 221104_RA_M;
	phases "AS";
	nominal_voltage 120;
	voltage_1 120;
	voltage_2 120;
	voltage_N 0;
}

object triplex_node:185 {
	name 221104_RA_TX;
	parent 221104_RA_M;
	phases AS;
	nominal_voltage 120;
	latitude 48N38'59.472";
	longitude 123W49'43.141";
	power_1 0.0503287069439602+4.50921836923303j;
	voltage_1 120;
	voltage_2 120;
	voltage_N 0;
}

object transformer:186  {
	phases "AS";
	from 221106;
	to 221106_RA_M;
	configuration transformer_configuration:59;
}

object triplex_meter:187 {
	name 221106_RA_M;
	phases "AS";
	nominal_voltage 120;
	voltage_1 120;
	voltage_2 120;
	voltage_N 0;
}

object triplex_node:188 {
	name 221106_RA_TX;
	parent 221106_RA_M;
	phases AS;
	nominal_voltage 120;
	latitude 48N39'8.275";
	longitude 123W49'40.182";
	power_1 0.0377465302079702+3.38191377692477j;
	voltage_1 120;
	voltage_2 120;
	voltage_N 0;
}

object transformer:189  {
	phases "AS";
	from 221108;
	to 221108_RA_M;
	configuration transformer_configuration:56;
}

object triplex_meter:190 {
	name 221108_RA_M;
	phases "AS";
	nominal_voltage 120;
	voltage_1 120;
	voltage_2 120;
	voltage_N 0;
}

object triplex_node:191 {
	name 221108_RA_TX;
	parent 221108_RA_M;
	phases AS;
	nominal_voltage 120;
	latitude 48N39'10.885";
	longitude 123W49'40.156";
	power_1 0.0943663255199254+8.45478444231193j;
	voltage_1 120;
	voltage_2 120;
	voltage_N 0;
}

object transformer:192  {
	phases "AS";
	from 221112;
	to 221112_RA_M;
	configuration transformer_configuration:51;
}

object triplex_meter:193 {
	name 221112_RA_M;
	phases "AS";
	nominal_voltage 120;
	voltage_1 120;
	voltage_2 120;
	voltage_N 0;
}

object triplex_node:194 {
	name 221112_RA_TX;
	parent 221112_RA_M;
	phases AS;
	nominal_voltage 120;
	latitude 48N39'4.573";
	longitude 123W49'40.227";
	power_1 0.0629108836799503+5.63652296154129j;
	voltage_1 120;
	voltage_2 120;
	voltage_N 0;
}

object transformer:195  {
	phases "AS";
	from 221116;
	to 221116_RA_M;
	configuration transformer_configuration:53;
}

object triplex_meter:196 {
	name 221116_RA_M;
	phases "AS";
	nominal_voltage 120;
	voltage_1 120;
	voltage_2 120;
	voltage_N 0;
}

object triplex_node:197 {
	name 221116_RA_TX;
	parent 221116_RA_M;
	phases AS;
	nominal_voltage 120;
	latitude 48N39'6.345";
	longitude 123W49'34.406";
	power_1 0.0251643534719801+2.25460918461652j;
	voltage_1 120;
	voltage_2 120;
	voltage_N 0;
}

object transformer:198  {
	phases "AS";
	from 221118;
	to 221118_RA_M;
	configuration transformer_configuration:59;
}

object triplex_meter:199 {
	name 221118_RA_M;
	phases "AS";
	nominal_voltage 120;
	voltage_1 120;
	voltage_2 120;
	voltage_N 0;
}

object triplex_node:200 {
	name 221118_RA_TX;
	parent 221118_RA_M;
	phases AS;
	nominal_voltage 120;
	latitude 48N39'8.323";
	longitude 123W49'28.092";
	power_1 0.0377465302079702+3.38191377692477j;
	voltage_1 120;
	voltage_2 120;
	voltage_N 0;
}

object transformer:201  {
	phases "A|B|C|N";
	from 221140;
	to 221140_A_M;
	configuration transformer_configuration:109;
}

object meter:202 {
	name 221140_A_M;
	phases "ABCN";
	nominal_voltage 14376.022;
	voltage_A 14376.022+0.0j;
	voltage_B -7188.011-12450.000j;
	voltage_C -7188.011+12450.000j;
}
object transformer:203  {
	phases "BS";
	from 221143;
	to 221143_AB_M;
	configuration transformer_configuration:71;
}

object triplex_meter:204 {
	name 221143_AB_M;
	phases "BS";
	nominal_voltage 120;
	voltage_1 -60.000-103.923j;
	voltage_2 -60.000-103.923j;
	voltage_N 0;
}

object triplex_node:205 {
	name 221143_AB_TX;
	parent 221143_AB_M;
	phases BS;
	nominal_voltage 120;
	latitude 48N38'57.607";
	longitude 123W48'34.819";
	power_1 0.427057248491999+1.97207860307461j;
	voltage_1 -60.000-103.923j;
	voltage_2 -60.000-103.923j;
	voltage_N 0;
}

object transformer:206  {
	phases "BS";
	from 221145;
	to 221145_AB_M;
	configuration transformer_configuration:75;
}

object triplex_meter:207 {
	name 221145_AB_M;
	phases "BS";
	nominal_voltage 120;
	voltage_1 -60.000-103.923j;
	voltage_2 -60.000-103.923j;
	voltage_N 0;
}

object triplex_node:208 {
	name 221145_AB_TX;
	parent 221145_AB_M;
	phases BS;
	nominal_voltage 120;
	latitude 48N38'34.895";
	longitude 123W48'29.183";
	power_1 2.13528624246+9.86039301537303j;
	voltage_1 -60.000-103.923j;
	voltage_2 -60.000-103.923j;
	voltage_N 0;
}

object transformer:209  {
	phases "AS";
	from 221366;
	to 221366_AA_M;
	configuration transformer_configuration:59;
}

object triplex_meter:210 {
	name 221366_AA_M;
	phases "AS";
	nominal_voltage 120;
	voltage_1 120;
	voltage_2 120;
	voltage_N 0;
}

object triplex_node:211 {
	name 221366_AA_TX;
	parent 221366_AA_M;
	phases AS;
	nominal_voltage 120;
	latitude 48N32'43.650";
	longitude 123W44'0.511";
	power_1 0.0377465302079702+3.38191377692477j;
	voltage_1 120;
	voltage_2 120;
	voltage_N 0;
}

object transformer:212  {
	phases "AS";
	from 221370;
	to 221370_AA_M;
	configuration transformer_configuration:59;
}

object triplex_meter:213 {
	name 221370_AA_M;
	phases "AS";
	nominal_voltage 120;
	voltage_1 120;
	voltage_2 120;
	voltage_N 0;
}

object triplex_node:214 {
	name 221370_AA_TX;
	parent 221370_AA_M;
	phases AS;
	nominal_voltage 120;
	latitude 48N32'49.953";
	longitude 123W44'16.618";
	power_1 0.0377465302079702+3.38191377692477j;
	voltage_1 120;
	voltage_2 120;
	voltage_N 0;
}

object transformer:215  {
	phases "A|B|C|N";
	from 221380;
	to 221380_I_M;
	configuration transformer_configuration:113;
}

object meter:216 {
	name 221380_I_M;
	phases "ABCN";
	nominal_voltage 14376.022;
	voltage_A 14376.022+0.0j;
	voltage_B -7188.011-12450.000j;
	voltage_C -7188.011+12450.000j;
}
object transformer:217  {
	phases "A|B|C|N";
	from 221382;
	to 221382_I_M;
	configuration transformer_configuration:114;
}

object meter:218 {
	name 221382_I_M;
	phases "ABCN";
	nominal_voltage 14376.022;
	voltage_A 14376.022+0.0j;
	voltage_B -7188.011-12450.000j;
	voltage_C -7188.011+12450.000j;
}
object transformer:219  {
	phases "A|B|C|N";
	from 221390;
	to 221390_I_M;
	configuration transformer_configuration:115;
}

object meter:220 {
	name 221390_I_M;
	phases "ABCN";
	nominal_voltage 14376.022;
	voltage_A 14376.022+0.0j;
	voltage_B -7188.011-12450.000j;
	voltage_C -7188.011+12450.000j;
}
object transformer:221  {
	phases "A|B|C|N";
	from 221394;
	to 221394_I_M;
	configuration transformer_configuration:116;
}

object meter:222 {
	name 221394_I_M;
	phases "ABCN";
	nominal_voltage 14376.022;
	voltage_A 14376.022+0.0j;
	voltage_B -7188.011-12450.000j;
	voltage_C -7188.011+12450.000j;
}
object transformer:223  {
	phases "AS";
	from 221498;
	to 221498_CA_M;
	configuration transformer_configuration:51;
}

object triplex_meter:224 {
	name 221498_CA_M;
	phases "AS";
	nominal_voltage 120;
	voltage_1 120;
	voltage_2 120;
	voltage_N 0;
}

object triplex_node:225 {
	name 221498_CA_TX;
	parent 221498_CA_M;
	phases AS;
	nominal_voltage 120;
	latitude 48N29'48.776";
	longitude 123W38'16.183";
	power_1 0.0629108836799503+5.63652296154129j;
	voltage_1 120;
	voltage_2 120;
	voltage_N 0;
}

object transformer:226  {
	phases "AS";
	from 221500;
	to 221500_CA_M;
	configuration transformer_configuration:54;
}

object triplex_meter:227 {
	name 221500_CA_M;
	phases "AS";
	nominal_voltage 120;
	voltage_1 120;
	voltage_2 120;
	voltage_N 0;
}

object triplex_node:228 {
	name 221500_CA_TX;
	parent 221500_CA_M;
	phases AS;
	nominal_voltage 120;
	latitude 48N29'49.407";
	longitude 123W38'24.596";
	power_1 0.125821767359901+11.2730459230826j;
	voltage_1 120;
	voltage_2 120;
	voltage_N 0;
}

object transformer:229  {
	phases "A|B|C|N";
	from 221520;
	to 221520_C_M;
	configuration transformer_configuration:118;
}

object meter:230 {
	name 221520_C_M;
	phases "ABCN";
	nominal_voltage 14376.022;
	voltage_A 14376.022+0.0j;
	voltage_B -7188.011-12450.000j;
	voltage_C -7188.011+12450.000j;
}
object transformer:231  {
	phases "BS";
	from 221524;
	to 221524_CB_M;
	configuration transformer_configuration:72;
}

object triplex_meter:232 {
	name 221524_CB_M;
	phases "BS";
	nominal_voltage 120;
	voltage_1 -60.000-103.923j;
	voltage_2 -60.000-103.923j;
	voltage_N 0;
}

object triplex_node:233 {
	name 221524_CB_TX;
	parent 221524_CB_M;
	phases BS;
	nominal_voltage 120;
	latitude 48N27'53.436";
	longitude 123W36'3.419";
	power_1 0.854114496983998+3.94415720614921j;
	voltage_1 -60.000-103.923j;
	voltage_2 -60.000-103.923j;
	voltage_N 0;
}

object transformer:234  {
	phases "BS";
	from 221528;
	to 221528_CB_M;
	configuration transformer_configuration:73;
}

object triplex_meter:235 {
	name 221528_CB_M;
	phases "BS";
	nominal_voltage 120;
	voltage_1 -60.000-103.923j;
	voltage_2 -60.000-103.923j;
	voltage_N 0;
}

object triplex_node:236 {
	name 221528_CB_TX;
	parent 221528_CB_M;
	phases BS;
	nominal_voltage 120;
	latitude 48N27'47.432";
	longitude 123W36'9.170";
	power_1 2.86128356489639+13.2129266405999j;
	voltage_1 -60.000-103.923j;
	voltage_2 -60.000-103.923j;
	voltage_N 0;
}

object transformer:237  {
	phases "BS";
	from 221530;
	to 221530_CB_M;
	configuration transformer_configuration:73;
}

object triplex_meter:238 {
	name 221530_CB_M;
	phases "BS";
	nominal_voltage 120;
	voltage_1 -60.000-103.923j;
	voltage_2 -60.000-103.923j;
	voltage_N 0;
}

object triplex_node:239 {
	name 221530_CB_TX;
	parent 221530_CB_M;
	phases BS;
	nominal_voltage 120;
	latitude 48N27'42.384";
	longitude 123W36'3.854";
	power_1 2.86128356489639+13.2129266405999j;
	voltage_1 -60.000-103.923j;
	voltage_2 -60.000-103.923j;
	voltage_N 0;
}

object transformer:240  {
	phases "BS";
	from 221532;
	to 221532_CB_M;
	configuration transformer_configuration:81;
}

object triplex_meter:241 {
	name 221532_CB_M;
	phases "BS";
	nominal_voltage 120;
	voltage_1 -60.000-103.923j;
	voltage_2 -60.000-103.923j;
	voltage_N 0;
}

object triplex_node:242 {
	name 221532_CB_TX;
	parent 221532_CB_M;
	phases BS;
	nominal_voltage 120;
	latitude 48N27'41.884";
	longitude 123W36'3.912";
	power_1 2.86128356489639+13.2129266405999j;
	voltage_1 -60.000-103.923j;
	voltage_2 -60.000-103.923j;
	voltage_N 0;
}

object transformer:243  {
	phases "BS";
	from 221536;
	to 221536_CB_M;
	configuration transformer_configuration:69;
}

object triplex_meter:244 {
	name 221536_CB_M;
	phases "BS";
	nominal_voltage 120;
	voltage_1 -60.000-103.923j;
	voltage_2 -60.000-103.923j;
	voltage_N 0;
}

object triplex_node:245 {
	name 221536_CB_TX;
	parent 221536_CB_M;
	phases BS;
	nominal_voltage 120;
	latitude 48N27'44.810";
	longitude 123W36'0.815";
	power_1 0.427057248491999+1.97207860307461j;
	voltage_1 -60.000-103.923j;
	voltage_2 -60.000-103.923j;
	voltage_N 0;
}

object transformer:246  {
	phases "AS";
	from 221558;
	to 221558_AA_M;
	configuration transformer_configuration:54;
}

object triplex_meter:247 {
	name 221558_AA_M;
	phases "AS";
	nominal_voltage 120;
	voltage_1 120;
	voltage_2 120;
	voltage_N 0;
}

object triplex_node:248 {
	name 221558_AA_TX;
	parent 221558_AA_M;
	phases AS;
	nominal_voltage 120;
	latitude 48N31'6.867";
	longitude 123W46'8.249";
	power_1 0.125821767359901+11.2730459230826j;
	voltage_1 120;
	voltage_2 120;
	voltage_N 0;
}

object transformer:249  {
	phases "CS";
	from 221558;
	to 221558_AC_M;
	configuration transformer_configuration:85;
}

object triplex_meter:250 {
	name 221558_AC_M;
	phases "CS";
	nominal_voltage 120;
	voltage_1 -60.000+103.923j;
	voltage_2 -60.000+103.923j;
	voltage_N 0;
}

object triplex_node:251 {
	name 221558_AC_TX;
	parent 221558_AC_M;
	phases AS;
	nominal_voltage 120;
	latitude 48N31'6.867";
	longitude 123W46'8.249";
	power_1 0+0j;
	voltage_1 -60.000+103.923j;
	voltage_2 -60.000+103.923j;
	voltage_N 0;
}

object transformer:252  {
	phases "AS";
	from 221559;
	to 221559_AA_M;
	configuration transformer_configuration:58;
}

object triplex_meter:253 {
	name 221559_AA_M;
	phases "AS";
	nominal_voltage 120;
	voltage_1 120;
	voltage_2 120;
	voltage_N 0;
}

object triplex_node:254 {
	name 221559_AA_TX;
	parent 221559_AA_M;
	phases AS;
	nominal_voltage 120;
	latitude 48N31'8.225";
	longitude 123W46'10.864";
	power_1 0.188732651039851+16.9095688846239j;
	voltage_1 120;
	voltage_2 120;
	voltage_N 0;
}

object transformer:255  {
	phases "AS";
	from 221576;
	to 221576_AA_M;
	configuration transformer_configuration:64;
}

object triplex_meter:256 {
	name 221576_AA_M;
	phases "AS";
	nominal_voltage 120;
	voltage_1 120;
	voltage_2 120;
	voltage_N 0;
}

object triplex_node:257 {
	name 221576_AA_TX;
	parent 221576_AA_M;
	phases AS;
	nominal_voltage 120;
	latitude 48N29'45.324";
	longitude 123W48'20.062";
	power_1 0.0377465302079702+3.38191377692477j;
	voltage_1 120;
	voltage_2 120;
	voltage_N 0;
}

object transformer:258  {
	phases "CS";
	from 221576;
	to 221576_AC_M;
	configuration transformer_configuration:95;
}

object triplex_meter:259 {
	name 221576_AC_M;
	phases "CS";
	nominal_voltage 120;
	voltage_1 -60.000+103.923j;
	voltage_2 -60.000+103.923j;
	voltage_N 0;
}

object triplex_node:260 {
	name 221576_AC_TX;
	parent 221576_AC_M;
	phases AS;
	nominal_voltage 120;
	latitude 48N29'45.324";
	longitude 123W48'20.062";
	power_1 0+0j;
	voltage_1 -60.000+103.923j;
	voltage_2 -60.000+103.923j;
	voltage_N 0;
}

object transformer:261  {
	phases "AS";
	from 221578;
	to 221578_AA_M;
	configuration transformer_configuration:57;
}

object triplex_meter:262 {
	name 221578_AA_M;
	phases "AS";
	nominal_voltage 120;
	voltage_1 120;
	voltage_2 120;
	voltage_N 0;
}

object triplex_node:263 {
	name 221578_AA_TX;
	parent 221578_AA_M;
	phases AS;
	nominal_voltage 120;
	latitude 48N29'43.673";
	longitude 123W48'18.440";
	power_1 0.0629108836799503+5.63652296154129j;
	voltage_1 120;
	voltage_2 120;
	voltage_N 0;
}

object transformer:264  {
	phases "AS";
	from 221581;
	to 221581_AA_M;
	configuration transformer_configuration:65;
}

object triplex_meter:265 {
	name 221581_AA_M;
	phases "AS";
	nominal_voltage 120;
	voltage_1 120;
	voltage_2 120;
	voltage_N 0;
}

object triplex_node:266 {
	name 221581_AA_TX;
	parent 221581_AA_M;
	phases AS;
	nominal_voltage 120;
	latitude 48N29'50.870";
	longitude 123W48'17.181";
	power_1 0.0880752371519304+7.8911321461578j;
	voltage_1 120;
	voltage_2 120;
	voltage_N 0;
}

object transformer:267  {
	phases "AS";
	from 221584;
	to 221584_AA_M;
	configuration transformer_configuration:60;
}

object triplex_meter:268 {
	name 221584_AA_M;
	phases "AS";
	nominal_voltage 120;
	voltage_1 120;
	voltage_2 120;
	voltage_N 0;
}

object triplex_node:269 {
	name 221584_AA_TX;
	parent 221584_AA_M;
	phases AS;
	nominal_voltage 120;
	latitude 48N29'57.118";
	longitude 123W48'20.761";
	power_1 0.125821767359901+11.2730459230826j;
	voltage_1 120;
	voltage_2 120;
	voltage_N 0;
}

object transformer:270  {
	phases "CS";
	from 221584;
	to 221584_AC_M;
	configuration transformer_configuration:91;
}

object triplex_meter:271 {
	name 221584_AC_M;
	phases "CS";
	nominal_voltage 120;
	voltage_1 -60.000+103.923j;
	voltage_2 -60.000+103.923j;
	voltage_N 0;
}

object triplex_node:272 {
	name 221584_AC_TX;
	parent 221584_AC_M;
	phases AS;
	nominal_voltage 120;
	latitude 48N29'57.118";
	longitude 123W48'20.761";
	power_1 0+0j;
	voltage_1 -60.000+103.923j;
	voltage_2 -60.000+103.923j;
	voltage_N 0;
}

object transformer:273  {
	phases "AS";
	from 221592;
	to 221592_AA_M;
	configuration transformer_configuration:66;
}

object triplex_meter:274 {
	name 221592_AA_M;
	phases "AS";
	nominal_voltage 120;
	voltage_1 120;
	voltage_2 120;
	voltage_N 0;
}

object triplex_node:275 {
	name 221592_AA_TX;
	parent 221592_AA_M;
	phases AS;
	nominal_voltage 120;
	latitude 48N30'0.189";
	longitude 123W48'5.373";
	power_1 0.201314827775841+18.0368734769321j;
	voltage_1 120;
	voltage_2 120;
	voltage_N 0;
}

object transformer:276  {
	phases "CS";
	from 221592;
	to 221592_AC_M;
	configuration transformer_configuration:97;
}

object triplex_meter:277 {
	name 221592_AC_M;
	phases "CS";
	nominal_voltage 120;
	voltage_1 -60.000+103.923j;
	voltage_2 -60.000+103.923j;
	voltage_N 0;
}

object triplex_node:278 {
	name 221592_AC_TX;
	parent 221592_AC_M;
	phases AS;
	nominal_voltage 120;
	latitude 48N30'0.189";
	longitude 123W48'5.373";
	power_1 0.719658416584759+13.657752961511j;
	voltage_1 -60.000+103.923j;
	voltage_2 -60.000+103.923j;
	voltage_N 0;
}

object transformer:279  {
	phases "AS";
	from 221596;
	to 221596_AA_M;
	configuration transformer_configuration:59;
}

object triplex_meter:280 {
	name 221596_AA_M;
	phases "AS";
	nominal_voltage 120;
	voltage_1 120;
	voltage_2 120;
	voltage_N 0;
}

object triplex_node:281 {
	name 221596_AA_TX;
	parent 221596_AA_M;
	phases AS;
	nominal_voltage 120;
	latitude 48N29'45.317";
	longitude 123W48'29.850";
	power_1 0.0377465302079702+3.38191377692477j;
	voltage_1 120;
	voltage_2 120;
	voltage_N 0;
}

object transformer:282  {
	phases "AS";
	from 221604;
	to 221604_AA_M;
	configuration transformer_configuration:51;
}

object triplex_meter:283 {
	name 221604_AA_M;
	phases "AS";
	nominal_voltage 120;
	voltage_1 120;
	voltage_2 120;
	voltage_N 0;
}

object triplex_node:284 {
	name 221604_AA_TX;
	parent 221604_AA_M;
	phases AS;
	nominal_voltage 120;
	latitude 48N29'22.239";
	longitude 123W49'17.440";
	power_1 0.0629108836799503+5.63652296154129j;
	voltage_1 120;
	voltage_2 120;
	voltage_N 0;
}

object transformer:285  {
	phases "AS";
	from 221608;
	to 221608_AA_M;
	configuration transformer_configuration:59;
}

object triplex_meter:286 {
	name 221608_AA_M;
	phases "AS";
	nominal_voltage 120;
	voltage_1 120;
	voltage_2 120;
	voltage_N 0;
}

object triplex_node:287 {
	name 221608_AA_TX;
	parent 221608_AA_M;
	phases AS;
	nominal_voltage 120;
	latitude 48N29'18.556";
	longitude 123W49'28.625";
	power_1 0.0377465302079702+3.38191377692477j;
	voltage_1 120;
	voltage_2 120;
	voltage_N 0;
}

object transformer:288  {
	phases "AS";
	from 221612;
	to 221612_AA_M;
	configuration transformer_configuration:60;
}

object triplex_meter:289 {
	name 221612_AA_M;
	phases "AS";
	nominal_voltage 120;
	voltage_1 120;
	voltage_2 120;
	voltage_N 0;
}

object triplex_node:290 {
	name 221612_AA_TX;
	parent 221612_AA_M;
	phases AS;
	nominal_voltage 120;
	latitude 48N29'23.763";
	longitude 123W49'37.005";
	power_1 0.10065741388792+9.01843673846606j;
	voltage_1 120;
	voltage_2 120;
	voltage_N 0;
}

object transformer:291  {
	phases "AS";
	from 221616;
	to 221616_AA_M;
	configuration transformer_configuration:59;
}

object triplex_meter:292 {
	name 221616_AA_M;
	phases "AS";
	nominal_voltage 120;
	voltage_1 120;
	voltage_2 120;
	voltage_N 0;
}

object triplex_node:293 {
	name 221616_AA_TX;
	parent 221616_AA_M;
	phases AS;
	nominal_voltage 120;
	latitude 48N28'57.793";
	longitude 123W50'35.592";
	power_1 0.0377465302079702+3.38191377692477j;
	voltage_1 120;
	voltage_2 120;
	voltage_N 0;
}
