//*********************************************
// $Id: R2-12.47-2.glm 1132 2008-11-18 22:36:10Z dchassin $ 
//*********************************************

clock { 
	 timezone CST+6CDT;
	 timestamp '2000-01-01 0:00:00';


//*********************************************
// modules
module powerflow;


object triplex_line_conductor: {
	name 1/0 AA triplex;
	resistance 0.97;
	geometric_mean_radius 0.0111;
}

object triplex_line_configuration:1 {
	conductor_1 1/0 AA triplex;
	conductor_2 1/0 AA triplex;
	conductor_N 1/0 AA triplex;
	insulation_thickness 0.08;
	diameter 0.368;
}

object transformer:99  {
	phases "AS";
	from 179633589;
	to 179633589_RA_M;
	configuration transformer_configuration:51;
}

object triplex_meter:100 {
	name 179633589_RA_M;
	phases "AS";
	nominal_voltage 120;
	voltage_1 120;
	voltage_2 120;
	voltage_N 0;
}

object triplex_node:101 {
	name 179633589_RA_TX;
	parent 179633589_RA_M;
	phases AS;
	nominal_voltage 120;
	latitude 89N47'54.440";
	longitude 120W10'31.722";
	power_1 14.9887372523629+12.1785520935811j;
	voltage_1 120;
	voltage_2 120;
	voltage_N 0;
}

object transformer:102  {
	phases "AS";
	from 179633739;
	to 179633739_RA_M;
	configuration transformer_configuration:52;
}

object triplex_meter:103 {
	name 179633739_RA_M;
	phases "AS";
	nominal_voltage 120;
	voltage_1 120;
	voltage_2 120;
	voltage_N 0;
}

object triplex_node:104 {
	name 179633739_RA_TX;
	parent 179633739_RA_M;
	phases AS;
	nominal_voltage 120;
	latitude 89N47'48.600";
	longitude 120W10'29.755";
	power_1 29.9774745047258+24.3571041871622j;
	voltage_1 120;
	voltage_2 120;
	voltage_N 0;
}

object transformer:105  {
	phases "AS";
	from 179632389;
	to 179632389_RA_M;
	configuration transformer_configuration:52;
}

object triplex_meter:106 {
	name 179632389_RA_M;
	phases "AS";
	nominal_voltage 120;
	voltage_1 120;
	voltage_2 120;
	voltage_N 0;
}

object triplex_node:107 {
	name 179632389_RA_TX;
	parent 179632389_RA_M;
	phases AS;
	nominal_voltage 120;
	latitude 89N47'11.956";
	longitude 120W9'12.321";
	power_1 29.9774745047258+24.3571041871622j;
	voltage_1 120;
	voltage_2 120;
	voltage_N 0;
}

object transformer:108  {
	phases "BS";
	from 17367183;
	to 17367183_RB_M;
	configuration transformer_configuration:64;
}

object triplex_meter:109 {
	name 17367183_RB_M;
	phases "BS";
	nominal_voltage 120;
	voltage_1 -60.000-103.923j;
	voltage_2 -60.000-103.923j;
	voltage_N 0;
}

object triplex_node:110 {
	name 17367183_RB_TX;
	parent 17367183_RB_M;
	phases BS;
	nominal_voltage 120;
	latitude 89N47'52.361";
	longitude 120W11'19.788";
	power_1 27.0434623150905+20.7283421878804j;
	voltage_1 -60.000-103.923j;
	voltage_2 -60.000-103.923j;
	voltage_N 0;
}

object transformer:111  {
	phases "BS";
	from 17367407;
	to 17367407_RB_M;
	configuration transformer_configuration:65;
}

object triplex_meter:112 {
	name 17367407_RB_M;
	phases "BS";
	nominal_voltage 120;
	voltage_1 -60.000-103.923j;
	voltage_2 -60.000-103.923j;
	voltage_N 0;
}

object triplex_node:113 {
	name 17367407_RB_TX;
	parent 17367407_RB_M;
	phases BS;
	nominal_voltage 120;
	latitude 89N47'50.325";
	longitude 120W10'11.685";
	power_1 13.5217311575453+10.3641710939402j;
	voltage_1 -60.000-103.923j;
	voltage_2 -60.000-103.923j;
	voltage_N 0;
}

object transformer:114  {
	phases "BS";
	from 179631684;
	to 179631684_RB_M;
	configuration transformer_configuration:66;
}

object triplex_meter:115 {
	name 179631684_RB_M;
	phases "BS";
	nominal_voltage 120;
	voltage_1 -60.000-103.923j;
	voltage_2 -60.000-103.923j;
	voltage_N 0;
}

object triplex_node:116 {
	name 179631684_RB_TX;
	parent 179631684_RB_M;
	phases BS;
	nominal_voltage 120;
	latitude 89N47'47.964";
	longitude 120W10'9.373";
	power_1 27.0434623150905+20.7283421878804j;
	voltage_1 -60.000-103.923j;
	voltage_2 -60.000-103.923j;
	voltage_N 0;
}

object transformer:117  {
	phases "BS";
	from 179633769;
	to 179633769_RB_M;
	configuration transformer_configuration:67;
}

object triplex_meter:118 {
	name 179633769_RB_M;
	phases "BS";
	nominal_voltage 120;
	voltage_1 -60.000-103.923j;
	voltage_2 -60.000-103.923j;
	voltage_N 0;
}

object triplex_node:119 {
	name 179633769_RB_TX;
	parent 179633769_RB_M;
	phases BS;
	nominal_voltage 120;
	latitude 89N47'54.517";
	longitude 120W10'21.817";
	power_1 13.5217311575453+10.3641710939402j;
	voltage_1 -60.000-103.923j;
	voltage_2 -60.000-103.923j;
	voltage_N 0;
}

object transformer:120  {
	phases "AS";
	from 179625740;
	to 179625740_RA_M;
	configuration transformer_configuration:51;
}

object triplex_meter:121 {
	name 179625740_RA_M;
	phases "AS";
	nominal_voltage 120;
	voltage_1 120;
	voltage_2 120;
	voltage_N 0;
}

object triplex_node:122 {
	name 179625740_RA_TX;
	parent 179625740_RA_M;
	phases AS;
	nominal_voltage 120;
	latitude 89N47'57.404";
	longitude 120W10'17.662";
	power_1 14.9887372523629+12.1785520935811j;
	voltage_1 120;
	voltage_2 120;
	voltage_N 0;
}

object transformer:123  {
	phases "A|B|C|N";
	from 16726388;
	to 16726388_C_M;
	configuration transformer_configuration:92;
}

object meter:124 {
	name 16726388_C_M;
	phases "ABCN";
	nominal_voltage 7199.558;
	voltage_A 7199.558+0.0j;
	voltage_B -3599.779-6235.000j;
	voltage_C -3599.779+6235.000j;
}
object transformer:125  {
	phases "AS";
	from 179632354;
	to 179632354_RA_M;
	configuration transformer_configuration:52;
}

object triplex_meter:126 {
	name 179632354_RA_M;
	phases "AS";
	nominal_voltage 120;
	voltage_1 120;
	voltage_2 120;
	voltage_N 0;
}

object triplex_node:127 {
	name 179632354_RA_TX;
	parent 179632354_RA_M;
	phases AS;
	nominal_voltage 120;
	latitude 89N47'5.808";
	longitude 120W9'21.727";
	power_1 29.9774745047258+24.3571041871622j;
	voltage_1 120;
	voltage_2 120;
	voltage_N 0;
}

object transformer:128  {
	phases "BS";
	from 179632264;
	to 179632264_RB_M;
	configuration transformer_configuration:66;
}

object triplex_meter:129 {
	name 179632264_RB_M;
	phases "BS";
	nominal_voltage 120;
	voltage_1 -60.000-103.923j;
	voltage_2 -60.000-103.923j;
	voltage_N 0;
}

object triplex_node:130 {
	name 179632264_RB_TX;
	parent 179632264_RB_M;
	phases BS;
	nominal_voltage 120;
	latitude 89N47'23.895";
	longitude 120W9'32.134";
	power_1 27.0434623150905+20.7283421878804j;
	voltage_1 -60.000-103.923j;
	voltage_2 -60.000-103.923j;
	voltage_N 0;
}

object transformer:131  {
	phases "BS";
	from 179632244;
	to 179632244_RB_M;
	configuration transformer_configuration:67;
}

object triplex_meter:132 {
	name 179632244_RB_M;
	phases "BS";
	nominal_voltage 120;
	voltage_1 -60.000-103.923j;
	voltage_2 -60.000-103.923j;
	voltage_N 0;
}

object triplex_node:133 {
	name 179632244_RB_TX;
	parent 179632244_RB_M;
	phases BS;
	nominal_voltage 120;
	latitude 89N47'22.805";
	longitude 120W9'27.931";
	power_1 13.5217311575453+10.3641710939402j;
	voltage_1 -60.000-103.923j;
	voltage_2 -60.000-103.923j;
	voltage_N 0;
}

object transformer:134  {
	phases "AS";
	from 17143006;
	to 17143006_RA_M;
	configuration transformer_configuration:52;
}

object triplex_meter:135 {
	name 17143006_RA_M;
	phases "AS";
	nominal_voltage 120;
	voltage_1 120;
	voltage_2 120;
	voltage_N 0;
}

object triplex_node:136 {
	name 17143006_RA_TX;
	parent 17143006_RA_M;
	phases AS;
	nominal_voltage 120;
	latitude 89N47'10.212";
	longitude 120W9'21.961";
	power_1 29.9774745047258+24.3571041871622j;
	voltage_1 120;
	voltage_2 120;
	voltage_N 0;
}

object transformer:137  {
	phases "AS";
	from 179632144;
	to 179632144_RA_M;
	configuration transformer_configuration:52;
}

object triplex_meter:138 {
	name 179632144_RA_M;
	phases "AS";
	nominal_voltage 120;
	voltage_1 120;
	voltage_2 120;
	voltage_N 0;
}

object triplex_node:139 {
	name 179632144_RA_TX;
	parent 179632144_RA_M;
	phases AS;
	nominal_voltage 120;
	latitude 89N48'0.650";
	longitude 120W9'27.036";
	power_1 29.9774745047258+24.3571041871622j;
	voltage_1 120;
	voltage_2 120;
	voltage_N 0;
}

object transformer:140  {
	phases "AS";
	from 179631789;
	to 179631789_RA_M;
	configuration transformer_configuration:51;
}

object triplex_meter:141 {
	name 179631789_RA_M;
	phases "AS";
	nominal_voltage 120;
	voltage_1 120;
	voltage_2 120;
	voltage_N 0;
}

object triplex_node:142 {
	name 179631789_RA_TX;
	parent 179631789_RA_M;
	phases AS;
	nominal_voltage 120;
	latitude 89N47'54.453";
	longitude 120W9'32.632";
	power_1 14.9887372523629+12.1785520935811j;
	voltage_1 120;
	voltage_2 120;
	voltage_N 0;
}

object transformer:143  {
	phases "A|B|C|N";
	from 17368149;
	to 17368149_C_M;
	configuration transformer_configuration:93;
}

object meter:144 {
	name 17368149_C_M;
	phases "ABCN";
	nominal_voltage 7199.558;
	voltage_A 7199.558+0.0j;
	voltage_B -3599.779-6235.000j;
	voltage_C -3599.779+6235.000j;
}
object transformer:145  {
	phases "BS";
	from 179631749;
	to 179631749_RB_M;
	configuration transformer_configuration:66;
}

object triplex_meter:146 {
	name 179631749_RB_M;
	phases "BS";
	nominal_voltage 120;
	voltage_1 -60.000-103.923j;
	voltage_2 -60.000-103.923j;
	voltage_N 0;
}

object triplex_node:147 {
	name 179631749_RB_TX;
	parent 179631749_RB_M;
	phases BS;
	nominal_voltage 120;
	latitude 89N47'47.861";
	longitude 120W9'40.338";
	power_1 27.0434623150905+20.7283421878804j;
	voltage_1 -60.000-103.923j;
	voltage_2 -60.000-103.923j;
	voltage_N 0;
}

object transformer:148  {
	phases "AS";
	from 17369386;
	to 17369386_RA_M;
	configuration transformer_configuration:53;
}

object triplex_meter:149 {
	name 17369386_RA_M;
	phases "AS";
	nominal_voltage 120;
	voltage_1 120;
	voltage_2 120;
	voltage_N 0;
}

object triplex_node:150 {
	name 17369386_RA_TX;
	parent 17369386_RA_M;
	phases AS;
	nominal_voltage 120;
	latitude 89N47'24.094";
	longitude 120W9'8.793";
	power_1 100.124764845784+81.3527279851216j;
	voltage_1 120;
	voltage_2 120;
	voltage_N 0;
}

object transformer:151  {
	phases "BS";
	from 17369386;
	to 17369386_RB_M;
	configuration transformer_configuration:68;
}

object triplex_meter:152 {
	name 17369386_RB_M;
	phases "BS";
	nominal_voltage 120;
	voltage_1 -60.000-103.923j;
	voltage_2 -60.000-103.923j;
	voltage_N 0;
}

object triplex_node:153 {
	name 17369386_RB_TX;
	parent 17369386_RB_M;
	phases BS;
	nominal_voltage 120;
	latitude 89N47'24.094";
	longitude 120W9'8.793";
	power_1 90.3251641324023+69.2326629075206j;
	voltage_1 -60.000-103.923j;
	voltage_2 -60.000-103.923j;
	voltage_N 0;
}

object transformer:154  {
	phases "CS";
	from 17369386;
	to 17369386_RC_M;
	configuration transformer_configuration:81;
}

object triplex_meter:155 {
	name 17369386_RC_M;
	phases "CS";
	nominal_voltage 120;
	voltage_1 -60.000+103.923j;
	voltage_2 -60.000+103.923j;
	voltage_N 0;
}

object triplex_node:156 {
	name 17369386_RC_TX;
	parent 17369386_RC_M;
	phases CS;
	nominal_voltage 120;
	latitude 89N47'24.094";
	longitude 120W9'8.793";
	power_1 89.0778792219862+63.7070039388015j;
	voltage_1 -60.000+103.923j;
	voltage_2 -60.000+103.923j;
	voltage_N 0;
}

object transformer:157  {
	phases "BS";
	from 179632199;
	to 179632199_RB_M;
	configuration transformer_configuration:70;
}

object triplex_meter:158 {
	name 179632199_RB_M;
	phases "BS";
	nominal_voltage 120;
	voltage_1 -60.000-103.923j;
	voltage_2 -60.000-103.923j;
	voltage_N 0;
}

object triplex_node:159 {
	name 179632199_RB_TX;
	parent 179632199_RB_M;
	phases BS;
	nominal_voltage 120;
	latitude 89N47'24.063";
	longitude 120W9'18.631";
	power_1 8.11303869452715+6.21850265636413j;
	voltage_1 -60.000-103.923j;
	voltage_2 -60.000-103.923j;
	voltage_N 0;
}

object transformer:160  {
	phases "BS";
	from 179632229;
	to 179632229_RB_M;
	configuration transformer_configuration:71;
}

object triplex_meter:161 {
	name 179632229_RB_M;
	phases "BS";
	nominal_voltage 120;
	voltage_1 -60.000-103.923j;
	voltage_2 -60.000-103.923j;
	voltage_N 0;
}

object triplex_node:162 {
	name 179632229_RB_TX;
	parent 179632229_RB_M;
	phases BS;
	nominal_voltage 120;
	latitude 89N47'24.158";
	longitude 120W9'21.942";
	power_1 20.2825967363179+15.5462566409103j;
	voltage_1 -60.000-103.923j;
	voltage_2 -60.000-103.923j;
	voltage_N 0;
}

object transformer:163  {
	phases "AS";
	from 179632394;
	to 179632394_RA_M;
	configuration transformer_configuration:52;
}

object triplex_meter:164 {
	name 179632394_RA_M;
	phases "AS";
	nominal_voltage 120;
	voltage_1 120;
	voltage_2 120;
	voltage_N 0;
}

object triplex_node:165 {
	name 179632394_RA_TX;
	parent 179632394_RA_M;
	phases AS;
	nominal_voltage 120;
	latitude 89N47'10.790";
	longitude 120W9'10.407";
	power_1 29.9774745047258+24.3571041871622j;
	voltage_1 120;
	voltage_2 120;
	voltage_N 0;
}

object transformer:166  {
	phases "BS";
	from 179632284;
	to 179632284_RB_M;
	configuration transformer_configuration:66;
}

object triplex_meter:167 {
	name 179632284_RB_M;
	phases "BS";
	nominal_voltage 120;
	voltage_1 -60.000-103.923j;
	voltage_2 -60.000-103.923j;
	voltage_N 0;
}

object triplex_node:168 {
	name 179632284_RB_TX;
	parent 179632284_RB_M;
	phases BS;
	nominal_voltage 120;
	latitude 89N47'13.817";
	longitude 120W9'0.424";
	power_1 27.0434623150905+20.7283421878804j;
	voltage_1 -60.000-103.923j;
	voltage_2 -60.000-103.923j;
	voltage_N 0;
}

object transformer:169  {
	phases "BS";
	from 179632359;
	to 179632359_RB_M;
	configuration transformer_configuration:66;
}

object triplex_meter:170 {
	name 179632359_RB_M;
	phases "BS";
	nominal_voltage 120;
	voltage_1 -60.000-103.923j;
	voltage_2 -60.000-103.923j;
	voltage_N 0;
}

object triplex_node:171 {
	name 179632359_RB_TX;
	parent 179632359_RB_M;
	phases BS;
	nominal_voltage 120;
	latitude 89N47'7.409";
	longitude 120W8'58.154";
	power_1 27.0434623150905+20.7283421878804j;
	voltage_1 -60.000-103.923j;
	voltage_2 -60.000-103.923j;
	voltage_N 0;
}

object transformer:172  {
	phases "BS";
	from 179632339;
	to 179632339_RB_M;
	configuration transformer_configuration:66;
}

object triplex_meter:173 {
	name 179632339_RB_M;
	phases "BS";
	nominal_voltage 120;
	voltage_1 -60.000-103.923j;
	voltage_2 -60.000-103.923j;
	voltage_N 0;
}

object triplex_node:174 {
	name 179632339_RB_TX;
	parent 179632339_RB_M;
	phases BS;
	nominal_voltage 120;
	latitude 89N47'10.612";
	longitude 120W9'0.382";
	power_1 27.0434623150905+20.7283421878804j;
	voltage_1 -60.000-103.923j;
	voltage_2 -60.000-103.923j;
	voltage_N 0;
}

object transformer:175  {
	phases "AS";
	from 179632364;
	to 179632364_RA_M;
	configuration transformer_configuration:52;
}

object triplex_meter:176 {
	name 179632364_RA_M;
	phases "AS";
	nominal_voltage 120;
	voltage_1 120;
	voltage_2 120;
	voltage_N 0;
}

object triplex_node:177 {
	name 179632364_RA_TX;
	parent 179632364_RA_M;
	phases AS;
	nominal_voltage 120;
	latitude 89N47'11.700";
	longitude 120W9'16.812";
	power_1 29.9774745047258+24.3571041871622j;
	voltage_1 120;
	voltage_2 120;
	voltage_N 0;
}

object transformer:178  {
	phases "AS";
	from 179632374;
	to 179632374_RA_M;
	configuration transformer_configuration:52;
}

object triplex_meter:179 {
	name 179632374_RA_M;
	phases "AS";
	nominal_voltage 120;
	voltage_1 120;
	voltage_2 120;
	voltage_N 0;
}

object triplex_node:180 {
	name 179632374_RA_TX;
	parent 179632374_RA_M;
	phases AS;
	nominal_voltage 120;
	latitude 89N47'7.714";
	longitude 120W9'16.897";
	power_1 29.9774745047258+24.3571041871622j;
	voltage_1 120;
	voltage_2 120;
	voltage_N 0;
}

object transformer:181  {
	phases "AS";
	from 17149672;
	to 17149672_RA_M;
	configuration transformer_configuration:55;
}

object triplex_meter:182 {
	name 17149672_RA_M;
	phases "AS";
	nominal_voltage 120;
	voltage_1 120;
	voltage_2 120;
	voltage_N 0;
}

object triplex_node:183 {
	name 17149672_RA_TX;
	parent 17149672_RA_M;
	phases AS;
	nominal_voltage 120;
	latitude 89N47'10.185";
	longitude 120W9'16.681";
	power_1 22.4831058785444+18.2678281403716j;
	voltage_1 120;
	voltage_2 120;
	voltage_N 0;
}

object transformer:184  {
	phases "BS";
	from 179632324;
	to 179632324_RB_M;
	configuration transformer_configuration:66;
}

object triplex_meter:185 {
	name 179632324_RB_M;
	phases "BS";
	nominal_voltage 120;
	voltage_1 -60.000-103.923j;
	voltage_2 -60.000-103.923j;
	voltage_N 0;
}

object triplex_node:186 {
	name 179632324_RB_TX;
	parent 179632324_RB_M;
	phases BS;
	nominal_voltage 120;
	latitude 89N47'10.668";
	longitude 120W8'54.315";
	power_1 27.0434623150905+20.7283421878804j;
	voltage_1 -60.000-103.923j;
	voltage_2 -60.000-103.923j;
	voltage_N 0;
}

object transformer:187  {
	phases "AS";
	from 179632309;
	to 179632309_RA_M;
	configuration transformer_configuration:51;
}

object triplex_meter:188 {
	name 179632309_RA_M;
	phases "AS";
	nominal_voltage 120;
	voltage_1 120;
	voltage_2 120;
	voltage_N 0;
}

object triplex_node:189 {
	name 179632309_RA_TX;
	parent 179632309_RA_M;
	phases AS;
	nominal_voltage 120;
	latitude 89N47'15.466";
	longitude 120W8'53.963";
	power_1 14.9887372523629+12.1785520935811j;
	voltage_1 120;
	voltage_2 120;
	voltage_N 0;
}

object transformer:190  {
	phases "AS";
	from 179632419;
	to 179632419_RA_M;
	configuration transformer_configuration:51;
}

object triplex_meter:191 {
	name 179632419_RA_M;
	phases "AS";
	nominal_voltage 120;
	voltage_1 120;
	voltage_2 120;
	voltage_N 0;
}

object triplex_node:192 {
	name 179632419_RA_TX;
	parent 179632419_RA_M;
	phases AS;
	nominal_voltage 120;
	latitude 89N47'30.631";
	longitude 120W9'0.941";
	power_1 14.9887372523629+12.1785520935811j;
	voltage_1 120;
	voltage_2 120;
	voltage_N 0;
}

object transformer:193  {
	phases "CS";
	from 179632419;
	to 179632419_RC_M;
	configuration transformer_configuration:79;
}

object triplex_meter:194 {
	name 179632419_RC_M;
	phases "CS";
	nominal_voltage 120;
	voltage_1 -60.000+103.923j;
	voltage_2 -60.000+103.923j;
	voltage_N 0;
}

object triplex_node:195 {
	name 179632419_RC_TX;
	parent 179632419_RC_M;
	phases CS;
	nominal_voltage 120;
	latitude 89N47'30.631";
	longitude 120W9'0.941";
	power_1 0+0j;
	voltage_1 -60.000+103.923j;
	voltage_2 -60.000+103.923j;
	voltage_N 0;
}

object transformer:196  {
	phases "AS";
	from 179632189;
	to 179632189_RA_M;
	configuration transformer_configuration:52;
}

object triplex_meter:197 {
	name 179632189_RA_M;
	phases "AS";
	nominal_voltage 120;
	voltage_1 120;
	voltage_2 120;
	voltage_N 0;
}

object triplex_node:198 {
	name 179632189_RA_TX;
	parent 179632189_RA_M;
	phases AS;
	nominal_voltage 120;
	latitude 89N47'29.019";
	longitude 120W9'15.126";
	power_1 29.9774745047258+24.3571041871622j;
	voltage_1 120;
	voltage_2 120;
	voltage_N 0;
}

object transformer:199  {
	phases "A|B|C|N";
	from 179632014;
	to 179632014_C_M;
	configuration transformer_configuration:94;
}

object meter:200 {
	name 179632014_C_M;
	phases "ABCN";
	nominal_voltage 7199.558;
	voltage_A 7199.558+0.0j;
	voltage_B -3599.779-6235.000j;
	voltage_C -3599.779+6235.000j;
}
object transformer:201  {
	phases "A|B|C|N";
	from 179632019;
	to 179632019_C_M;
	configuration transformer_configuration:95;
}

object meter:202 {
	name 179632019_C_M;
	phases "ABCN";
	nominal_voltage 7199.558;
	voltage_A 7199.558+0.0j;
	voltage_B -3599.779-6235.000j;
	voltage_C -3599.779+6235.000j;
}
object transformer:203  {
	phases "A|B|C|N";
	from 179632119;
	to 179632119_C_M;
	configuration transformer_configuration:95;
}

object meter:204 {
	name 179632119_C_M;
	phases "ABCN";
	nominal_voltage 7199.558;
	voltage_A 7199.558+0.0j;
	voltage_B -3599.779-6235.000j;
	voltage_C -3599.779+6235.000j;
}
object transformer:205  {
	phases "AS";
	from 179631769;
	to 179631769_RA_M;
	configuration transformer_configuration:51;
}

object triplex_meter:206 {
	name 179631769_RA_M;
	phases "AS";
	nominal_voltage 120;
	voltage_1 120;
	voltage_2 120;
	voltage_N 0;
}

object triplex_node:207 {
	name 179631769_RA_TX;
	parent 179631769_RA_M;
	phases AS;
	nominal_voltage 120;
	latitude 89N48'7.296";
	longitude 120W9'55.898";
	power_1 14.9887372523629+12.1785520935811j;
	voltage_1 120;
	voltage_2 120;
	voltage_N 0;
}

object transformer:208  {
	phases "CS";
	from 179631769;
	to 179631769_RC_M;
	configuration transformer_configuration:79;
}

object triplex_meter:209 {
	name 179631769_RC_M;
	phases "CS";
	nominal_voltage 120;
	voltage_1 -60.000+103.923j;
	voltage_2 -60.000+103.923j;
	voltage_N 0;
}

object triplex_node:210 {
	name 179631769_RC_TX;
	parent 179631769_RC_M;
	phases CS;
	nominal_voltage 120;
	latitude 89N48'7.296";
	longitude 120W9'55.898";
	power_1 0+0j;
	voltage_1 -60.000+103.923j;
	voltage_2 -60.000+103.923j;
	voltage_N 0;
}

object transformer:211  {
	phases "BS";
	from 179631794;
	to 179631794_RB_M;
	configuration transformer_configuration:66;
}

object triplex_meter:212 {
	name 179631794_RB_M;
	phases "BS";
	nominal_voltage 120;
	voltage_1 -60.000-103.923j;
	voltage_2 -60.000-103.923j;
	voltage_N 0;
}

object triplex_node:213 {
	name 179631794_RB_TX;
	parent 179631794_RB_M;
	phases BS;
	nominal_voltage 120;
	latitude 89N48'6.296";
	longitude 120W9'53.484";
	power_1 27.0434623150905+20.7283421878804j;
	voltage_1 -60.000-103.923j;
	voltage_2 -60.000-103.923j;
	voltage_N 0;
}

object transformer:214  {
	phases "AS";
	from 179631949;
	to 179631949_RA_M;
	configuration transformer_configuration:56;
}

object triplex_meter:215 {
	name 179631949_RA_M;
	phases "AS";
	nominal_voltage 120;
	voltage_1 120;
	voltage_2 120;
	voltage_N 0;
}

object triplex_node:216 {
	name 179631949_RA_TX;
	parent 179631949_RA_M;
	phases AS;
	nominal_voltage 120;
	latitude 89N48'12.157";
	longitude 120W9'52.026";
	power_1 8.99324235141774+7.30713125614865j;
	voltage_1 120;
	voltage_2 120;
	voltage_N 0;
}

object transformer:217  {
	phases "BS";
	from 179631319;
	to 179631319_RB_M;
	configuration transformer_configuration:66;
}

object triplex_meter:218 {
	name 179631319_RB_M;
	phases "BS";
	nominal_voltage 120;
	voltage_1 -60.000-103.923j;
	voltage_2 -60.000-103.923j;
	voltage_N 0;
}

object triplex_node:219 {
	name 179631319_RB_TX;
	parent 179631319_RB_M;
	phases BS;
	nominal_voltage 120;
	latitude 89N47'41.608";
	longitude 120W10'3.676";
	power_1 27.0434623150905+20.7283421878804j;
	voltage_1 -60.000-103.923j;
	voltage_2 -60.000-103.923j;
	voltage_N 0;
}

object transformer:220  {
	phases "BS";
	from 179631524;
	to 179631524_RB_M;
	configuration transformer_configuration:66;
}

object triplex_meter:221 {
	name 179631524_RB_M;
	phases "BS";
	nominal_voltage 120;
	voltage_1 -60.000-103.923j;
	voltage_2 -60.000-103.923j;
	voltage_N 0;
}

object triplex_node:222 {
	name 179631524_RB_TX;
	parent 179631524_RB_M;
	phases BS;
	nominal_voltage 120;
	latitude 89N47'38.054";
	longitude 120W10'4.226";
	power_1 27.0434623150905+20.7283421878804j;
	voltage_1 -60.000-103.923j;
	voltage_2 -60.000-103.923j;
	voltage_N 0;
}

object transformer:223  {
	phases "BS";
	from 179631939;
	to 179631939_RB_M;
	configuration transformer_configuration:66;
}

object triplex_meter:224 {
	name 179631939_RB_M;
	phases "BS";
	nominal_voltage 120;
	voltage_1 -60.000-103.923j;
	voltage_2 -60.000-103.923j;
	voltage_N 0;
}

object triplex_node:225 {
	name 179631939_RB_TX;
	parent 179631939_RB_M;
	phases BS;
	nominal_voltage 120;
	latitude 89N47'44.378";
	longitude 120W9'51.671";
	power_1 27.0434623150905+20.7283421878804j;
	voltage_1 -60.000-103.923j;
	voltage_2 -60.000-103.923j;
	voltage_N 0;
}

object transformer:226  {
	phases "BS";
	from 179631559;
	to 179631559_RB_M;
	configuration transformer_configuration:66;
}

object triplex_meter:227 {
	name 179631559_RB_M;
	phases "BS";
	nominal_voltage 120;
	voltage_1 -60.000-103.923j;
	voltage_2 -60.000-103.923j;
	voltage_N 0;
}

object triplex_node:228 {
	name 179631559_RB_TX;
	parent 179631559_RB_M;
	phases BS;
	nominal_voltage 120;
	latitude 89N47'45.418";
	longitude 120W9'58.116";
	power_1 27.0434623150905+20.7283421878804j;
	voltage_1 -60.000-103.923j;
	voltage_2 -60.000-103.923j;
	voltage_N 0;
}

object transformer:229  {
	phases "AS";
	from 17150445;
	to 17150445_RA_M;
	configuration transformer_configuration:57;
}

object triplex_meter:230 {
	name 17150445_RA_M;
	phases "AS";
	nominal_voltage 120;
	voltage_1 120;
	voltage_2 120;
	voltage_N 0;
}

object triplex_node:231 {
	name 17150445_RA_TX;
	parent 17150445_RA_M;
	phases AS;
	nominal_voltage 120;
	latitude 89N47'27.634";
	longitude 120W9'20.017";
	power_1 5.99549490094516+4.87142083743243j;
	voltage_1 120;
	voltage_2 120;
	voltage_N 0;
}

object transformer:232  {
	phases "CS";
	from 17150445;
	to 17150445_RC_M;
	configuration transformer_configuration:85;
}

object triplex_meter:233 {
	name 17150445_RC_M;
	phases "CS";
	nominal_voltage 120;
	voltage_1 -60.000+103.923j;
	voltage_2 -60.000+103.923j;
	voltage_N 0;
}

object triplex_node:234 {
	name 17150445_RC_TX;
	parent 17150445_RC_M;
	phases CS;
	nominal_voltage 120;
	latitude 89N47'27.634";
	longitude 120W9'20.017";
	power_1 0+0j;
	voltage_1 -60.000+103.923j;
	voltage_2 -60.000+103.923j;
	voltage_N 0;
}

object transformer:235  {
	phases "AS";
	from 179632164;
	to 179632164_RA_M;
	configuration transformer_configuration:56;
}

object triplex_meter:236 {
	name 179632164_RA_M;
	phases "AS";
	nominal_voltage 120;
	voltage_1 120;
	voltage_2 120;
	voltage_N 0;
}

object triplex_node:237 {
	name 179632164_RA_TX;
	parent 179632164_RA_M;
	phases AS;
	nominal_voltage 120;
	latitude 89N47'30.081";
	longitude 120W9'19.668";
	power_1 8.99324235141774+7.30713125614865j;
	voltage_1 120;
	voltage_2 120;
	voltage_N 0;
}

object transformer:238  {
	phases "AS";
	from 179632109;
	to 179632109_RA_M;
	configuration transformer_configuration:51;
}

object triplex_meter:239 {
	name 179632109_RA_M;
	phases "AS";
	nominal_voltage 120;
	voltage_1 120;
	voltage_2 120;
	voltage_N 0;
}

object triplex_node:240 {
	name 179632109_RA_TX;
	parent 179632109_RA_M;
	phases AS;
	nominal_voltage 120;
	latitude 89N47'34.755";
	longitude 120W9'20.733";
	power_1 14.9887372523629+12.1785520935811j;
	voltage_1 120;
	voltage_2 120;
	voltage_N 0;
}

object transformer:241  {
	phases "BS";
	from 179631994;
	to 179631994_RB_M;
	configuration transformer_configuration:67;
}

object triplex_meter:242 {
	name 179631994_RB_M;
	phases "BS";
	nominal_voltage 120;
	voltage_1 -60.000-103.923j;
	voltage_2 -60.000-103.923j;
	voltage_N 0;
}

object triplex_node:243 {
	name 179631994_RB_TX;
	parent 179631994_RB_M;
	phases BS;
	nominal_voltage 120;
	latitude 89N47'35.785";
	longitude 120W9'31.985";
	power_1 13.5217311575453+10.3641710939402j;
	voltage_1 -60.000-103.923j;
	voltage_2 -60.000-103.923j;
	voltage_N 0;
}

object transformer:244  {
	phases "BS";
	from 17387959;
	to 17387959_RB_M;
	configuration transformer_configuration:64;
}

object triplex_meter:245 {
	name 17387959_RB_M;
	phases "BS";
	nominal_voltage 120;
	voltage_1 -60.000-103.923j;
	voltage_2 -60.000-103.923j;
	voltage_N 0;
}

object triplex_node:246 {
	name 17387959_RB_TX;
	parent 17387959_RB_M;
	phases BS;
	nominal_voltage 120;
	latitude 89N47'42.005";
	longitude 120W9'25.530";
	power_1 27.0434623150905+20.7283421878804j;
	voltage_1 -60.000-103.923j;
	voltage_2 -60.000-103.923j;
	voltage_N 0;
}

object transformer:247  {
	phases "BS";
	from 17367112;
	to 17367112_RB_M;
	configuration transformer_configuration:72;
}

object triplex_meter:248 {
	name 17367112_RB_M;
	phases "BS";
	nominal_voltage 120;
	voltage_1 -60.000-103.923j;
	voltage_2 -60.000-103.923j;
	voltage_N 0;
}

object triplex_node:249 {
	name 17367112_RB_TX;
	parent 17367112_RB_M;
	phases BS;
	nominal_voltage 120;
	latitude 89N47'45.675";
	longitude 120W11'25.829";
	power_1 162.260773890543+124.370053127283j;
	voltage_1 -60.000-103.923j;
	voltage_2 -60.000-103.923j;
	voltage_N 0;
}

object transformer:250  {
	phases "BS";
	from 17367183;
	to 17367183_RB_M;
	configuration transformer_configuration:72;
}

object triplex_meter:251 {
	name 17367183_RB_M;
	phases "BS";
	nominal_voltage 120;
	voltage_1 -60.000-103.923j;
	voltage_2 -60.000-103.923j;
	voltage_N 0;
}

object triplex_node:252 {
	name 17367183_RB_TX;
	parent 17367183_RB_M;
	phases BS;
	nominal_voltage 120;
	latitude 89N47'52.361";
	longitude 120W11'19.788";
	power_1 162.260773890543+124.370053127283j;
	voltage_1 -60.000-103.923j;
	voltage_2 -60.000-103.923j;
	voltage_N 0;
}

object transformer:253  {
	phases "BS";
	from 17387949;
	to 17387949_RB_M;
	configuration transformer_configuration:64;
}

object triplex_meter:254 {
	name 17387949_RB_M;
	phases "BS";
	nominal_voltage 120;
	voltage_1 -60.000-103.923j;
	voltage_2 -60.000-103.923j;
	voltage_N 0;
}

object triplex_node:255 {
	name 17387949_RB_TX;
	parent 17387949_RB_M;
	phases BS;
	nominal_voltage 120;
	latitude 89N47'43.591";
	longitude 120W9'20.912";
	power_1 27.0434623150905+20.7283421878804j;
	voltage_1 -60.000-103.923j;
	voltage_2 -60.000-103.923j;
	voltage_N 0;
}

object transformer:256  {
	phases "AS";