// $Id: R2-12.47-1.glm 1132 2008-11-18 22:36:10Z dchassin $ 
//*********************************************

clock { 
	 timezone CST+6CDT;
	 timestamp '2000-01-01 0:00:00';
}

//*********************************************
// modules
module powerflow;


object fuse:1204 {
	name R2-12-47-1_fuse_1;
	phases "ABCN";
	from node:579;
	to node:547;
	current_limit 1000.0;
	status CLOSED;
}

object fuse:1223 {
	name R2-12-47-1_fuse_2;
	phases "ABCN";
	from node:572;
	to node:542;
	current_limit 10000.0;
	status CLOSED;
}

object fuse:1234 {
	name R2-12-47-1_fuse_3;
	phases "ABCN";
	from node:1061;
	to node:1062;
	current_limit 10000.0;
	status CLOSED;
}

object fuse:1262 {
	name R2-12-47-1_fuse_4;
	phases "ABCN";
	from node:1074;
	to node:1095;
	current_limit 10000.0;
	status CLOSED;
}

object fuse:1265 {
	name R2-12-47-1_fuse_5;
	phases "AN";
	from node:1096;
	to node:1097;
	current_limit 10000.0;
	status CLOSED;
}

object fuse:1337 {
	name R2-12-47-1_fuse_6;
	phases "BN";
	from node:688;
	to node:679;
	current_limit 10000.0;
	status CLOSED;
}

object fuse:1351 {
	name R2-12-47-1_fuse_7;
	phases "ABCN";
	from node:650;
	to node:652;
	current_limit 10000.0;
	status CLOSED;
}

object fuse:1352 {
	name R2-12-47-1_fuse_8;
	phases "AN";
	from node:697;
	to node:1089;
	current_limit 10000.0;
	status CLOSED;
}

object fuse:1353 {
	name R2-12-47-1_fuse_9;
	phases "ABCN";
	from node:651;
	to node:647;
	current_limit 10000.0;
	status CLOSED;
}

object fuse:1354 {
	name R2-12-47-1_fuse_10;
	phases "ABCN";
	from node:653;
	to node:655;
	current_limit 10000.0;
	status CLOSED;
}

object fuse:1355 {
	name R2-12-47-1_fuse_11;
	phases "AN";
	from node:633;
	to node:634;
	current_limit 10000.0;
	status CLOSED;
}

object fuse:1356 {
	name R2-12-47-1_fuse_12;
	phases "AN";
	from node:654;
	to node:648;
	current_limit 10000.0;
	status CLOSED;
}

object fuse:1357 {
	name R2-12-47-1_fuse_13;
	phases "BN";
	from node:713;
	to node:714;
	current_limit 10000.0;
	status CLOSED;
}

object fuse:1358 {
	name R2-12-47-1_fuse_14;
	phases "BN";
	from node:719;
	to node:718;
	current_limit 10000.0;
	status CLOSED;
}

object fuse:1359 {
	name R2-12-47-1_fuse_15;
	phases "BN";
	from node:681;
	to node:677;
	current_limit 10000.0;
	status CLOSED;
}

object fuse:1373 {
	name R2-12-47-1_fuse_16;
	phases "BN";
	from node:741;
	to node:742;
	current_limit 10000.0;
	status CLOSED;
}

object fuse:1374 {
	name R2-12-47-1_fuse_17;
	phases "BN";
	from node:695;
	to node:1094;
	current_limit 10000.0;
	status OPEN;
}

object fuse:1375 {
	name R2-12-47-1_fuse_18;
	phases "ABCN";
	from node:1093;
	to node:735;
	current_limit 10000.0;
	status CLOSED;
}

object fuse:1386 {
	name R2-12-47-1_fuse_19;
	phases "ABCN";
	from node:782;
	to node:1108;
	current_limit 10000.0;
	status CLOSED;
}

object fuse:1393 {
	name R2-12-47-1_fuse_20;
	phases "ABCN";
	from node:1114;
	to node:1115;
	current_limit 10000.0;
	status CLOSED;
}

object fuse:1397 {
	name R2-12-47-1_fuse_21;
	phases "ABCN";
	from node:787;
	to node:1123;
	current_limit 10000.0;
	status CLOSED;
}

object fuse:1404 {
	name R2-12-47-1_fuse_22;
	phases "AN";
	from node:1137;
	to node:1140;
	current_limit 10000.0;
	status CLOSED;
}

object fuse:1427 {
	name R2-12-47-1_fuse_23;
	phases "AN";
	from node:762;
	to node:761;
	current_limit 10000.0;
	status CLOSED;
}

object fuse:1428 {
	name R2-12-47-1_fuse_24;
	phases "ABCN";
	from node:779;
	to node:778;
	current_limit 10000.0;
	status CLOSED;
}

object fuse:1458 {
	name R2-12-47-1_fuse_25;
	phases "ABCN";
	from node:788;
	to node:789;
	current_limit 10000.0;
	status CLOSED;
}

object fuse:1539 {
	name R2-12-47-1_fuse_26;
	phases "ABCN";
	from node:916;
	to node:919;
	current_limit 10000.0;
	status CLOSED;
}

object fuse:1619 {
	name R2-12-47-1_fuse_27;
	phases "ABCN";
	from node:977;
	to node:970;
	current_limit 10000.0;
	status CLOSED;
}

object fuse:1620 {
	name R2-12-47-1_fuse_28;
	phases "ABCN";
	from node:977;
	to node:969;
	current_limit 10000.0;
	status CLOSED;
}

object fuse:1626 {
	name R2-12-47-1_fuse_29;
	phases "ABCN";
	from node:1105;
	to node:974;
	current_limit 10000.0;
	status CLOSED;
}

object fuse:1642 {
	name R2-12-47-1_fuse_30;
	phases "ABCN";
	from node:1038;
	to node:1040;
	current_limit 10000.0;
	status CLOSED;
}

object fuse:1645 {
	name R2-12-47-1_fuse_31;
	phases "ABCN";
	from node:924;
	to node:1055;
	current_limit 10000.0;
	status CLOSED;
}

object fuse:1655 {
	name R2-12-47-1_fuse_32;
	phases "ABCN";
	from node:573;
	to node:546;
	current_limit 10000.0;
	status CLOSED;
}

object fuse:1663 {
	name R2-12-47-1_fuse_33;
	phases "ABCN";
	from node:560;
	to node:540;
	current_limit 10000.0;
	status CLOSED;
}

object fuse:1671 {
	name R2-12-47-1_fuse_34;
	phases "ABCN";
	from node:593;
	to node:565;
	current_limit 10000.0;
	status CLOSED;
}

object fuse:1674 {
	name R2-12-47-1_fuse_35;
	phases "ABCN";
	from node:548;
	to node:535;
	current_limit 3000.0;
	status CLOSED;
}


object line_configuration:1142 {
	conductor_A underground_line_conductor:45;
	conductor_B underground_line_conductor:45;
	conductor_C underground_line_conductor:45;
	conductor_N underground_line_conductor:45;
	spacing line_spacing:1141;
}

object line_configuration:1144 {
	conductor_B underground_line_conductor:42;
	conductor_N underground_line_conductor:42;
	spacing line_spacing:1143;
}

object line_configuration:1146 {
	conductor_A overhead_line_conductor:27;
	conductor_B overhead_line_conductor:27;
	conductor_C overhead_line_conductor:27;
	conductor_N overhead_line_conductor:27;
	spacing line_spacing:1145;
}

object line_configuration:1147 {
	conductor_A underground_line_conductor:42;
	conductor_B underground_line_conductor:42;
	conductor_C underground_line_conductor:42;
	conductor_N underground_line_conductor:42;
	spacing line_spacing:1141;
}

object line_configuration:1149 {
	conductor_C underground_line_conductor:42;
	conductor_N underground_line_conductor:42;
	spacing line_spacing:1148;
}

object line_configuration:1151 {
	conductor_A underground_line_conductor:42;
	conductor_N underground_line_conductor:42;
	spacing line_spacing:1150;
}

object line_configuration:1153 {
	conductor_B overhead_line_conductor:8;
	conductor_N overhead_line_conductor:8;
	spacing line_spacing:1152;
}

object line_configuration:1154 {
	conductor_A overhead_line_conductor:11;
	conductor_B overhead_line_conductor:11;
	conductor_C overhead_line_conductor:11;
	conductor_N overhead_line_conductor:11;
	spacing line_spacing:1145;
}

object line_configuration:1156 {
	conductor_A overhead_line_conductor:11;
	conductor_N overhead_line_conductor:11;
	spacing line_spacing:1155;
}

object line_configuration:1157 {
	conductor_A underground_line_conductor:46;
	conductor_B underground_line_conductor:46;
	conductor_C underground_line_conductor:46;
	conductor_N underground_line_conductor:46;
	spacing line_spacing:1141;
}

object line_configuration:1158 {
	conductor_B overhead_line_conductor:11;
	conductor_N overhead_line_conductor:11;
	spacing line_spacing:1152;
}

object line_configuration:1159 {
	conductor_A underground_line_conductor:44;
	conductor_B underground_line_conductor:44;
	conductor_C underground_line_conductor:44;
	conductor_N underground_line_conductor:44;
	spacing line_spacing:1145;
}

object line_configuration:1160 {
	conductor_A overhead_line_conductor:8;
	conductor_B overhead_line_conductor:8;
	conductor_C overhead_line_conductor:8;
	conductor_N overhead_line_conductor:8;
	spacing line_spacing:1145;
}

object line_configuration:1161 {
	conductor_A overhead_line_conductor:27;
	conductor_N overhead_line_conductor:27;
	spacing line_spacing:1155;
}

object line_configuration:1162 {
	conductor_A underground_line_conductor:43;
	conductor_B underground_line_conductor:43;
	conductor_C underground_line_conductor:43;
	conductor_N underground_line_conductor:43;
	spacing line_spacing:1145;
}

object line_configuration:1163 {
	conductor_A underground_line_conductor:43;
	conductor_B underground_line_conductor:43;
	conductor_C underground_line_conductor:43;
	conductor_N underground_line_conductor:43;
	spacing line_spacing:1141;
}

object line_configuration:1164 {
	conductor_A overhead_line_conductor:33;
	conductor_B overhead_line_conductor:33;
	conductor_C overhead_line_conductor:33;
	conductor_N overhead_line_conductor:33;
	spacing line_spacing:1145;
}

object line_configuration:1165 {
	conductor_A overhead_line_conductor:8;
	conductor_N overhead_line_conductor:8;
	spacing line_spacing:1155;
}

object line_configuration:1166 {
	conductor_A overhead_line_conductor:2;
	conductor_B overhead_line_conductor:2;
	conductor_C overhead_line_conductor:2;
	conductor_N overhead_line_conductor:2;
	spacing line_spacing:1145;
}

object line_configuration:1167 {
	conductor_B overhead_line_conductor:10;
	conductor_N overhead_line_conductor:10;
	spacing line_spacing:1152;
}

object line_configuration:1169 {
	conductor_C overhead_line_conductor:10;
	conductor_N overhead_line_conductor:10;
	spacing line_spacing:1168;
}

object line_configuration:1170 {
	conductor_B overhead_line_conductor:9;
	conductor_N overhead_line_conductor:9;
	spacing line_spacing:1152;
}

object line_configuration:1171 {
	conductor_A overhead_line_conductor:10;
	conductor_B overhead_line_conductor:10;
	conductor_C overhead_line_conductor:10;
	conductor_N overhead_line_conductor:10;
	spacing line_spacing:1145;
}

object line_configuration:1172 {
	conductor_A overhead_line_conductor:11;
	conductor_B overhead_line_conductor:11;
	conductor_C overhead_line_conductor:11;
	conductor_N overhead_line_conductor:11;
	spacing line_spacing:1145;
}

object line_configuration:1173 {
	conductor_B overhead_line_conductor:33;
	conductor_N overhead_line_conductor:33;
	spacing line_spacing:1152;
}

object line_configuration:1174 {
	conductor_A overhead_line_conductor:19;
	conductor_B overhead_line_conductor:19;
	conductor_C overhead_line_conductor:19;
	conductor_N overhead_line_conductor:19;
	spacing line_spacing:1145;
}

object line_configuration:1176 {
	conductor_A overhead_line_conductor:8;
	conductor_B overhead_line_conductor:8;
	conductor_N overhead_line_conductor:8;
	spacing line_spacing:1175;
}

object line_configuration:1177 {
	conductor_A overhead_line_conductor:16;
	conductor_B overhead_line_conductor:16;
	conductor_C overhead_line_conductor:16;
	conductor_N overhead_line_conductor:16;
	spacing line_spacing:1145;
}

object line_configuration:1178 {
	conductor_A underground_line_conductor:44;
	conductor_B underground_line_conductor:44;
	conductor_C underground_line_conductor:44;
	conductor_N underground_line_conductor:44;
	spacing line_spacing:1141;
}

object line_configuration:1179 {
	conductor_A underground_line_conductor:43;
	conductor_N underground_line_conductor:43;
	spacing line_spacing:1150;
}

object line_configuration:1180 {
	conductor_A overhead_line_conductor:9;
	conductor_N overhead_line_conductor:9;
	spacing line_spacing:1155;
}

object line_configuration:1181 {
	conductor_A overhead_line_conductor:9;
	conductor_B overhead_line_conductor:9;
	conductor_C overhead_line_conductor:9;
	conductor_N overhead_line_conductor:9;
	spacing line_spacing:1145;
}

object line_configuration:1182 {
	conductor_C overhead_line_conductor:7;
	conductor_N overhead_line_conductor:7;
	spacing line_spacing:1168;
}

object line_configuration:1183 {
	conductor_C overhead_line_conductor:11;
	conductor_N overhead_line_conductor:11;
	spacing line_spacing:1168;
}

object line_configuration:1184 {
	conductor_A overhead_line_conductor:16;
	conductor_B overhead_line_conductor:16;
	conductor_C overhead_line_conductor:16;
	conductor_N overhead_line_conductor:16;
	spacing line_spacing:1145;
}

object line_configuration:1185 {
	conductor_A overhead_line_conductor:11;
	conductor_B overhead_line_conductor:11;
	conductor_C overhead_line_conductor:11;
	conductor_N overhead_line_conductor:11;
	spacing line_spacing:1145;
}

object line_configuration:1186 {
	conductor_A overhead_line_conductor:17;
	conductor_B overhead_line_conductor:17;
	conductor_C overhead_line_conductor:17;
	conductor_N overhead_line_conductor:17;
	spacing line_spacing:1145;
}

object line_configuration:1188 {
	conductor_B overhead_line_conductor:8;
	conductor_C overhead_line_conductor:8;
	conductor_N overhead_line_conductor:8;
	spacing line_spacing:1187;
}

object line_configuration:1189 {
	conductor_A overhead_line_conductor:19;
	conductor_B overhead_line_conductor:19;
	conductor_N overhead_line_conductor:19;
	spacing line_spacing:1175;
}

object line_configuration:1190 {
	conductor_A overhead_line_conductor:8;
	conductor_B overhead_line_conductor:8;
	conductor_C overhead_line_conductor:8;
	conductor_N overhead_line_conductor:8;
	spacing line_spacing:1145;
}

object line_configuration:1191 {
	conductor_A overhead_line_conductor:8;
	conductor_B overhead_line_conductor:8;
	conductor_C overhead_line_conductor:8;
	conductor_N overhead_line_conductor:8;
	spacing line_spacing:1145;
}


object line_spacing:1141 {
	distance_AB 3.0 in;
	distance_BC 3.0 in;
	distance_AC 3.0 in;
	distance_AN 2.0 in;
	distance_BN 2.0 in;
	distance_CN 2.0 in;
}

object line_spacing:1143 {
	distance_BN 2.0 in;
}

object line_spacing:1145 {
	distance_AB 48.0 in;
	distance_BC 48.0 in;
	distance_AC 48.0 in;
	distance_AN 36.0 in;
	distance_BN 36.0 in;
	distance_CN 36.0 in;
}

object line_spacing:1148 {
	distance_CN 2.0 in;
}

object line_spacing:1150 {
	distance_AN 2.0 in;
}

object line_spacing:1152 {
	distance_BN 36.0 in;
}

object line_spacing:1155 {
	distance_AN 36.0 in;
}

object line_spacing:1168 {
	distance_CN 36.0 in;
}

object line_spacing:1175 {
	distance_AB 48.0 in;
	distance_AN 36.0 in;
	distance_BN 36.0 in;
}

object line_spacing:1187 {
	distance_BC 48.0 in;
	distance_BN 36.0 in;
	distance_CN 36.0 in;
}


object load {
	name R2-12-47-1_load_1;
	parent R2-12-47-1_meter_1;
	phases "ABCN";
	nominal_voltage 7199.558;
	voltage_A 7199.558+0.0j;
	voltage_B -3599.779-6235.000j;
	voltage_C -3599.779+6235.000j;
	constant_power_A 8659.824+3206.451j;
	constant_power_B 7980.615+2952.084j;
	constant_power_C 8881.885+3264.890j;
	load_class "A";
}

object load {
	name R2-12-47-1_load_2;
	parent R2-12-47-1_meter_2;
	phases "ABCN";
	nominal_voltage 7199.558;
	voltage_A 7199.558+0.0j;
	voltage_B -3599.779-6235.000j;
	voltage_C -3599.779+6235.000j;
	constant_power_A 17319.649+6412.902j;
	constant_power_B 15961.230+5904.169j;
	constant_power_C 17763.769+6529.780j;
	load_class "C";
}

object load {
	name R2-12-47-1_load_3;
	parent R2-12-47-1_meter_3;
	phases "ABCN";
	nominal_voltage 7199.558;
	voltage_A 7199.558+0.0j;
	voltage_B -3599.779-6235.000j;
	voltage_C -3599.779+6235.000j;
	constant_power_A 34639.297+12825.803j;
	constant_power_B 31922.459+11808.337j;
	constant_power_C 35527.539+13059.561j;
	load_class "C";
}

object load {
	name R2-12-47-1_load_4;
	parent R2-12-47-1_meter_4;
	phases "ABCN";
	nominal_voltage 7199.558;
	voltage_A 7199.558+0.0j;
	voltage_B -3599.779-6235.000j;
	voltage_C -3599.779+6235.000j;
	constant_power_A 5195.895+1923.870j;
	constant_power_B 4788.369+1771.251j;
	constant_power_C 5329.131+1958.934j;
	load_class "C";
}

object load {
	name R2-12-47-1_load_5;
	parent R2-12-47-1_meter_5;
	phases "ABCN";
	nominal_voltage 7199.558;
	voltage_A 7199.558+0.0j;
	voltage_B -3599.779-6235.000j;
	voltage_C -3599.779+6235.000j;
	constant_power_A 173196.486+64129.016j;
	constant_power_B 159612.296+59041.685j;
	constant_power_C 177637.693+65297.804j;
	load_class "C";
}

object load {
	name R2-12-47-1_load_6;
	parent R2-12-47-1_meter_6;
	phases "ABCN";
	nominal_voltage 7199.558;
	voltage_A 7199.558+0.0j;
	voltage_B -3599.779-6235.000j;
	voltage_C -3599.779+6235.000j;
	constant_power_A 25979.473+9619.352j;
	constant_power_B 23941.844+8856.253j;
	constant_power_C 26645.654+9794.671j;
	load_class "C";
}

object load {
	name R2-12-47-1_load_7;
	parent R2-12-47-1_meter_7;
	phases "ABCN";
	nominal_voltage 7199.558;
	voltage_A 7199.558+0.0j;
	voltage_B -3599.779-6235.000j;
	voltage_C -3599.779+6235.000j;
	constant_power_A 57732.162+21376.339j;
	constant_power_B 53204.099+19680.562j;
	constant_power_C 59212.564+21765.935j;
	load_class "C";
}

object load {
	name R2-12-47-1_load_8;
	parent R2-12-47-1_meter_8;
	phases "ABCN";
	nominal_voltage 7199.558;
	voltage_A 7199.558+0.0j;
	voltage_B -3599.779-6235.000j;
	voltage_C -3599.779+6235.000j;
	constant_power_A 57732.162+21376.339j;
	constant_power_B 53204.099+19680.562j;
	constant_power_C 59212.564+21765.935j;
	load_class "C";
}

object load {
	name R2-12-47-1_load_9;
	parent R2-12-47-1_meter_9;
	phases "ABCN";
	nominal_voltage 7199.558;
	voltage_A 7199.558+0.0j;
	voltage_B -3599.779-6235.000j;
	voltage_C -3599.779+6235.000j;
	constant_power_A 8659.824+3206.451j;
	constant_power_B 7980.615+2952.084j;
	constant_power_C 8881.885+3264.890j;
	load_class "C";
}

object load {
	name R2-12-47-1_load_10;
	parent R2-12-47-1_meter_10;
	phases "ABCN";
	nominal_voltage 7199.558;
	voltage_A 7199.558+0.0j;
	voltage_B -3599.779-6235.000j;
	voltage_C -3599.779+6235.000j;
	constant_power_A 8659.824+3206.451j;
	constant_power_B 7980.615+2952.084j;
	constant_power_C 8881.885+3264.890j;
	load_class "C";
}

object load {
	name R2-12-47-1_load_11;
	parent R2-12-47-1_meter_11;
	phases "ABCN";
	nominal_voltage 7199.558;
	voltage_A 7199.558+0.0j;
	voltage_B -3599.779-6235.000j;
	voltage_C -3599.779+6235.000j;
	constant_power_A 5195.895+1923.870j;
	constant_power_B 4788.369+1771.251j;
	constant_power_C 5329.131+1958.934j;
	load_class "C";
}

object load {
	name R2-12-47-1_load_12;
	parent R2-12-47-1_meter_12;
	phases "ABCN";
	nominal_voltage 7199.558;
	voltage_A 7199.558+0.0j;
	voltage_B -3599.779-6235.000j;
	voltage_C -3599.779+6235.000j;
	constant_power_A 5195.895+1923.870j;
	constant_power_B 4788.369+1771.251j;
	constant_power_C 5329.131+1958.934j;
	load_class "C";
}

object load {
	name R2-12-47-1_load_13;
	parent R2-12-47-1_meter_13;
	phases "ABCN";
	nominal_voltage 7199.558;
	voltage_A 7199.558+0.0j;
	voltage_B -3599.779-6235.000j;
	voltage_C -3599.779+6235.000j;
	constant_power_A 86598.243+32064.508j;
	constant_power_B 79806.148+29520.843j;
	constant_power_C 88818.846+32648.902j;
	load_class "C";
}

object load {
	name R2-12-47-1_load_14;
	parent R2-12-47-1_meter_14;
	phases "ABCN";
	nominal_voltage 7199.558;
	voltage_A 7199.558+0.0j;
	voltage_B -3599.779-6235.000j;
	voltage_C -3599.779+6235.000j;
	constant_power_A 86598.243+32064.508j;
	constant_power_B 79806.148+29520.843j;
	constant_power_C 88818.846+32648.902j;
	load_class "C";
}

object load {
	name R2-12-47-1_load_15;
	parent R2-12-47-1_meter_15;
	phases "ABCN";
	nominal_voltage 7199.558;
	voltage_A 7199.558+0.0j;
	voltage_B -3599.779-6235.000j;
	voltage_C -3599.779+6235.000j;
	constant_power_A 25979.473+9619.352j;
	constant_power_B 23941.844+8856.253j;
	constant_power_C 26645.654+9794.671j;
	load_class "C";
}

object load {
	name R2-12-47-1_load_16;
	parent R2-12-47-1_meter_16;
	phases "ABCN";
	nominal_voltage 7199.558;
	voltage_A 7199.558+0.0j;
	voltage_B -3599.779-6235.000j;
	voltage_C -3599.779+6235.000j;
	constant_power_A 8659.824+3206.451j;
	constant_power_B 7980.615+2952.084j;
	constant_power_C 8881.885+3264.890j;
	load_class "C";
}

object load {
	name R2-12-47-1_load_17;
	parent R2-12-47-1_meter_17;
	phases "ABCN";
	nominal_voltage 7199.558;
	voltage_A 7199.558+0.0j;
	voltage_B -3599.779-6235.000j;
	voltage_C -3599.779+6235.000j;
	constant_power_A 12989.736+4809.676j;
	constant_power_B 7980.615+2952.084j;
	constant_power_C 8881.885+3264.890j;
	load_class "C";
}

object load {
	name R2-12-47-1_load_18;
	parent R2-12-47-1_meter_18;
	phases "ABCN";
	nominal_voltage 7199.558;
	voltage_A 7199.558+0.0j;
	voltage_B -3599.779-6235.000j;
	voltage_C -3599.779+6235.000j;
	constant_power_A 34639.297+12825.803j;
	constant_power_B 31922.459+11808.337j;
	constant_power_C 35527.539+13059.561j;
	load_class "C";
}

object load {
	name R2-12-47-1_load_19;
	parent R2-12-47-1_meter_19;
	phases "ABCN";
	nominal_voltage 7199.558;
	voltage_A 7199.558+0.0j;
	voltage_B -3599.779-6235.000j;
	voltage_C -3599.779+6235.000j;
	constant_power_A 8659.824+3206.451j;
	constant_power_B 7980.615+2952.084j;
	constant_power_C 8881.885+3264.890j;
	load_class "C";
}

object load {
	name R2-12-47-1_load_20;
	parent R2-12-47-1_meter_20;
	phases "ABCN";
	nominal_voltage 7199.558;
	voltage_A 7199.558+0.0j;
	voltage_B -3599.779-6235.000j;
	voltage_C -3599.779+6235.000j;
	constant_power_A 3463.930+1282.580j;
	constant_power_B 3192.246+1180.834j;
	constant_power_C 3552.754+1305.956j;
	load_class "C";
}

object load {
	name R2-12-47-1_load_21;
	parent R2-12-47-1_meter_21;
	phases "ABCN";
	nominal_voltage 7199.558;
	voltage_A 7199.558+0.0j;
	voltage_B -3599.779-6235.000j;
	voltage_C -3599.779+6235.000j;
	constant_power_A 17319.649+6412.902j;
	constant_power_B 15961.230+5904.169j;
	constant_power_C 17763.769+6529.780j;
	load_class "C";
}

object load {
	name R2-12-47-1_load_22;
	parent R2-12-47-1_meter_22;
	phases "ABCN";
	nominal_voltage 7199.558;
	voltage_A 7199.558+0.0j;
	voltage_B -3599.779-6235.000j;
	voltage_C -3599.779+6235.000j;
	constant_power_A 8659.824+3206.451j;
	constant_power_B 7980.615+2952.084j;
	constant_power_C 8881.885+3264.890j;
	load_class "C";
}

object load {
	name R2-12-47-1_load_23;
	parent R2-12-47-1_meter_23;
	phases "ABCN";
	nominal_voltage 7199.558;
	voltage_A 7199.558+0.0j;
	voltage_B -3599.779-6235.000j;
	voltage_C -3599.779+6235.000j;
	constant_power_A 25979.473+9619.352j;
	constant_power_B 23941.844+8856.253j;
	constant_power_C 26645.654+9794.671j;
	load_class "C";
}

object load {
	name R2-12-47-1_load_24;
	parent R2-12-47-1_meter_24;
	phases "ABCN";
	nominal_voltage 7199.558;
	voltage_A 7199.558+0.0j;
	voltage_B -3599.779-6235.000j;
	voltage_C -3599.779+6235.000j;
	constant_power_A 5195.895+1923.870j;
	constant_power_B 4788.369+1771.251j;
	constant_power_C 5329.131+1958.934j;
	load_class "C";
}

object load {
	name R2-12-47-1_load_25;
	parent R2-12-47-1_meter_25;
	phases "ABCN";
	nominal_voltage 7199.558;
	voltage_A 7199.558+0.0j;
	voltage_B -3599.779-6235.000j;
	voltage_C -3599.779+6235.000j;
	constant_power_A 8659.824+3206.451j;
	constant_power_B 7980.615+2952.084j;
	constant_power_C 8881.885+3264.890j;
	load_class "C";
}

object load {
	name R2-12-47-1_load_26;
	parent R2-12-47-1_meter_26;
	phases "ABCN";
	nominal_voltage 7199.558;
	voltage_A 7199.558+0.0j;
	voltage_B -3599.779-6235.000j;
	voltage_C -3599.779+6235.000j;
	constant_power_A 8659.824+3206.451j;
	constant_power_B 7980.615+2952.084j;
	constant_power_C 8881.885+3264.890j;
	load_class "C";
}

object load {
	name R2-12-47-1_load_27;
	parent R2-12-47-1_meter_27;
	phases "ABCN";
	nominal_voltage 7199.558;
	voltage_A 7199.558+0.0j;
	voltage_B -3599.779-6235.000j;
	voltage_C -3599.779+6235.000j;
	constant_power_A 3463.930+1282.580j;
	constant_power_B 3192.246+1180.834j;
	constant_power_C 3552.754+1305.956j;
	load_class "C";
}

object load {
	name R2-12-47-1_load_28;
	parent R2-12-47-1_meter_28;
	phases "ABCN";
	nominal_voltage 7199.558;
	voltage_A 7199.558+0.0j;
	voltage_B -3599.779-6235.000j;
	voltage_C -3599.779+6235.000j;
	constant_power_A 17319.649+6412.902j;
	constant_power_B 15961.230+5904.169j;
	constant_power_C 0.000+0.000j;
	load_class "C";
}

object load {
	name R2-12-47-1_load_29;
	parent R2-12-47-1_meter_29;
	phases "ABCN";
	nominal_voltage 7199.558;
	voltage_A 7199.558+0.0j;
	voltage_B -3599.779-6235.000j;
	voltage_C -3599.779+6235.000j;
	constant_power_A 3463.930+1282.580j;
	constant_power_B 3192.246+1180.834j;
	constant_power_C 8881.885+3264.890j;
	load_class "C";
}

object load {
	name R2-12-47-1_load_30;
	parent R2-12-47-1_meter_30;
	phases "ABCN";
	nominal_voltage 7199.558;
	voltage_A 7199.558+0.0j;
	voltage_B -3599.779-6235.000j;
	voltage_C -3599.779+6235.000j;
	constant_power_A 8659.824+3206.451j;
	constant_power_B 7980.615+2952.084j;
	constant_power_C 8881.885+3264.890j;
	load_class "C";
}

object load {
	name R2-12-47-1_load_31;
	parent R2-12-47-1_meter_31;
	phases "ABCN";
	nominal_voltage 7199.558;
	voltage_A 7199.558+0.0j;
	voltage_B -3599.779-6235.000j;
	voltage_C -3599.779+6235.000j;
	constant_power_A 8659.824+3206.451j;
	constant_power_B 7980.615+2952.084j;
	constant_power_C 8881.885+3264.890j;
	load_class "C";
}

object load {
	name R2-12-47-1_load_32;
	parent R2-12-47-1_meter_32;
	phases "ABCN";
	nominal_voltage 7199.558;
	voltage_A 7199.558+0.0j;
	voltage_B -3599.779-6235.000j;
	voltage_C -3599.779+6235.000j;
	constant_power_A 8659.824+3206.451j;
	constant_power_B 7980.615+2952.084j;
	constant_power_C 8881.885+3264.890j;
	load_class "C";
}

object load {
	name R2-12-47-1_load_33;
	parent R2-12-47-1_meter_33;
	phases "ABCN";
	nominal_voltage 7199.558;
	voltage_A 7199.558+0.0j;
	voltage_B -3599.779-6235.000j;
	voltage_C -3599.779+6235.000j;
	constant_power_A 8659.824+3206.451j;
	constant_power_B 7980.615+2952.084j;
	constant_power_C 8881.885+3264.890j;
	load_class "C";
}

object load {
	name R2-12-47-1_load_34;
	parent R2-12-47-1_meter_34;
	phases "ABCN";
	nominal_voltage 7199.558;
	voltage_A 7199.558+0.0j;
	voltage_B -3599.779-6235.000j;
	voltage_C -3599.779+6235.000j;
	constant_power_A 5195.895+1923.870j;
	constant_power_B 4788.369+1771.251j;
	constant_power_C 5329.131+1958.934j;
	load_class "C";
}

object load {
	name R2-12-47-1_load_35;
	parent R2-12-47-1_meter_35;
	phases "ABCN";
	nominal_voltage 7199.558;
	voltage_A 7199.558+0.0j;
	voltage_B -3599.779-6235.000j;
	voltage_C -3599.779+6235.000j;
	constant_power_A 17319.649+6412.902j;
	constant_power_B 15961.230+5904.169j;
	constant_power_C 17763.769+6529.780j;
	load_class "C";
}

object load {
	name R2-12-47-1_load_36;
	parent R2-12-47-1_meter_36;
	phases "ABCN";
	nominal_voltage 7199.558;
	voltage_A 7199.558+0.0j;
	voltage_B -3599.779-6235.000j;
	voltage_C -3599.779+6235.000j;
	constant_power_A 8659.824+3206.451j;
	constant_power_B 7980.615+2952.084j;
	constant_power_C 0.000+0.000j;
	load_class "C";
}

object load {
	name R2-12-47-1_load_37;
	parent R2-12-47-1_meter_37;
	phases "ABCN";
	nominal_voltage 7199.558;
	voltage_A 7199.558+0.0j;
	voltage_B -3599.779-6235.000j;
	voltage_C -3599.779+6235.000j;
	constant_power_A 8659.824+3206.451j;
	constant_power_B 7980.615+2952.084j;
	constant_power_C 8881.885+3264.890j;
	load_class "C";
}

object load {
	name R2-12-47-1_load_38;
	parent R2-12-47-1_meter_38;
	phases "ABCN";
	nominal_voltage 7199.558;
	voltage_A 7199.558+0.0j;
	voltage_B -3599.779-6235.000j;
	voltage_C -3599.779+6235.000j;
	constant_power_A 5195.895+1923.870j;
	constant_power_B 4788.369+1771.251j;
	constant_power_C 5329.131+1958.934j;
	load_class "C";
}

object load {
	name R2-12-47-1_load_39;
	parent R2-12-47-1_meter_39;
	phases "ABCN";
	nominal_voltage 7199.558;
	voltage_A 7199.558+0.0j;
	voltage_B -3599.779-6235.000j;
	voltage_C -3599.779+6235.000j;
	constant_power_A 25979.473+9619.352j;
	constant_power_B 23941.844+8856.253j;
	constant_power_C 26645.654+9794.671j;
	load_class "C";
}

object load {
	name R2-12-47-1_load_40;
	parent R2-12-47-1_meter_40;
	phases "ABCN";
	nominal_voltage 7199.558;
	voltage_A 7199.558+0.0j;
	voltage_B -3599.779-6235.000j;
	voltage_C -3599.779+6235.000j;
	constant_power_A 17319.649+6412.902j;
	constant_power_B 15961.230+5904.169j;
	constant_power_C 17763.769+6529.780j;
	load_class "C";
}

object load {
	name R2-12-47-1_load_41;
	parent R2-12-47-1_meter_41;
	phases "ABCN";
	nominal_voltage 7199.558;
	voltage_A 7199.558+0.0j;
	voltage_B -3599.779-6235.000j;
	voltage_C -3599.779+6235.000j;
	constant_power_A 8659.824+3206.451j;
	constant_power_B 7980.615+2952.084j;
	constant_power_C 8881.885+3264.890j;
	load_class "A";
}

object load {
	name R2-12-47-1_load_42;
	parent R2-12-47-1_meter_42;
	phases "ABCN";
	nominal_voltage 7199.558;
	voltage_A 7199.558+0.0j;
	voltage_B -3599.779-6235.000j;
	voltage_C -3599.779+6235.000j;
	constant_power_A 34639.297+12825.803j;
	constant_power_B 31922.459+11808.337j;
	constant_power_C 35527.539+13059.561j;
	load_class "C";
}

object load {
	name R2-12-47-1_load_43;
	parent R2-12-47-1_meter_43;
	phases "ABCN";
	nominal_voltage 7199.558;
	voltage_A 7199.558+0.0j;
	voltage_B -3599.779-6235.000j;
	voltage_C -3599.779+6235.000j;
	constant_power_A 57732.162+21376.339j;
	constant_power_B 53204.099+19680.562j;
	constant_power_C 59212.564+21765.935j;
	load_class "C";
}

object load {
	name R2-12-47-1_load_44;
	parent R2-12-47-1_meter_44;
	phases "ABCN";
	nominal_voltage 7199.558;
	voltage_A 7199.558+0.0j;
	voltage_B -3599.779-6235.000j;
	voltage_C -3599.779+6235.000j;
	constant_power_A 8659.824+3206.451j;
	constant_power_B 7980.615+2952.084j;
	constant_power_C 8881.885+3264.890j;
	load_class "C";
}

object load {
	name R2-12-47-1_load_45;
	parent R2-12-47-1_meter_45;
	phases "ABCN";
	nominal_voltage 7199.558;