//*********************************************
// $Id: R2-12.47-1.glm 1132 2008-11-18 22:36:10Z dchassin $ 
//*********************************************

clock { 
	 timezone CST+6CDT;
	 timestamp '2000-01-01 0:00:00';
}

//*********************************************
// modules
module powerflow;


object triplex_line_conductor: {
	name 1/0 AA triplex;
	resistance 0.97;
	geometric_mean_radius 0.0111;
}

object triplex_line_configuration:1 {
	conductor_1 1/0 AA triplex;
	conductor_2 1/0 AA triplex;
	conductor_N 1/0 AA triplex;
	insulation_thickness 0.08;
	diameter 0.368;
}

object transformer:128  {
	phases "BS";
	from Node_1154806627;
	to Node_1154806627_RB_M;
	configuration transformer_configuration:67;
}

object triplex_meter:129 {
	name Node_1154806627_RB_M;
	phases "BS";
	nominal_voltage 120;
	voltage_1 -60.000-103.923j;
	voltage_2 -60.000-103.923j;
	voltage_N 0;
}

object triplex_node:130 {
	name Node_1154806627_RB_TX;
	parent Node_1154806627_RB_M;
	phases BS;
	nominal_voltage 120;
	latitude 48N37'46.766";
	longitude 118W48'49.478";
	power_1 7.98061478492924+2.95208425337865j;
	voltage_1 -60.000-103.923j;
	voltage_2 -60.000-103.923j;
	voltage_N 0;
}

object transformer:131  {
	phases "BS";
	from Node_1154806939;
	to Node_1154806939_RB_M;
	configuration transformer_configuration:68;
}

object triplex_meter:132 {
	name Node_1154806939_RB_M;
	phases "BS";
	nominal_voltage 120;
	voltage_1 -60.000-103.923j;
	voltage_2 -60.000-103.923j;
	voltage_N 0;
}

object triplex_node:133 {
	name Node_1154806939_RB_TX;
	parent Node_1154806939_RB_M;
	phases BS;
	nominal_voltage 120;
	latitude 48N37'48.436";
	longitude 118W48'45.693";
	power_1 15.9612295698585+5.9041685067573j;
	voltage_1 -60.000-103.923j;
	voltage_2 -60.000-103.923j;
	voltage_N 0;
}

object transformer:134  {
	phases "BS";
	from Node_11548217215;
	to Node_11548217215_RB_M;
	configuration transformer_configuration:67;
}

object triplex_meter:135 {
	name Node_11548217215_RB_M;
	phases "BS";
	nominal_voltage 120;
	voltage_1 -60.000-103.923j;
	voltage_2 -60.000-103.923j;
	voltage_N 0;
}

object triplex_node:136 {
	name Node_11548217215_RB_TX;
	parent Node_11548217215_RB_M;
	phases BS;
	nominal_voltage 120;
	latitude 48N37'49.608";
	longitude 118W48'44.788";
	power_1 7.98061478492924+2.95208425337865j;
	voltage_1 -60.000-103.923j;
	voltage_2 -60.000-103.923j;
	voltage_N 0;
}

object transformer:137  {
	phases "BS";
	from Node_11548227419;
	to Node_11548227419_RB_M;
	configuration transformer_configuration:68;
}

object triplex_meter:138 {
	name Node_11548227419_RB_M;
	phases "BS";
	nominal_voltage 120;
	voltage_1 -60.000-103.923j;
	voltage_2 -60.000-103.923j;
	voltage_N 0;
}

object triplex_node:139 {
	name Node_11548227419_RB_TX;
	parent Node_11548227419_RB_M;
	phases BS;
	nominal_voltage 120;
	latitude 48N37'47.074";
	longitude 118W48'42.813";
	power_1 15.9612295698585+5.9041685067573j;
	voltage_1 -60.000-103.923j;
	voltage_2 -60.000-103.923j;
	voltage_N 0;
}

object transformer:140  {
	phases "AS";
	from Node_1437292455;
	to Node_1437292455_CA_M;
	configuration transformer_configuration:51;
}

object triplex_meter:141 {
	name Node_1437292455_CA_M;
	phases "AS";
	nominal_voltage 120;
	voltage_1 120;
	voltage_2 120;
	voltage_N 0;
}

object triplex_node:142 {
	name Node_1437292455_CA_TX;
	parent Node_1437292455_CA_M;
	phases AS;
	nominal_voltage 120;
	latitude 48N37'53.444";
	longitude 118W49'32.990";
	power_1 8.6598243062183+3.2064507782686j;
	voltage_1 120;
	voltage_2 120;
	voltage_N 0;
}

object transformer:143  {
	phases "BS";
	from Node_14744574276;
	to Node_14744574276_CB_M;
	configuration transformer_configuration:69;
}

object triplex_meter:144 {
	name Node_14744574276_CB_M;
	phases "BS";
	nominal_voltage 120;
	voltage_1 -60.000-103.923j;
	voltage_2 -60.000-103.923j;
	voltage_N 0;
}

object triplex_node:145 {
	name Node_14744574276_CB_TX;
	parent Node_14744574276_CB_M;
	phases BS;
	nominal_voltage 120;
	latitude 48N37'59.012";
	longitude 118W49'19.694";
	power_1 53.3105067633274+19.7199228125694j;
	voltage_1 -60.000-103.923j;
	voltage_2 -60.000-103.923j;
	voltage_N 0;
}

object transformer:146  {
	phases "AS";
	from Node_15226676714;
	to Node_15226676714_CA_M;
	configuration transformer_configuration:52;
}

object triplex_meter:147 {
	name Node_15226676714_CA_M;
	phases "AS";
	nominal_voltage 120;
	voltage_1 120;
	voltage_2 120;
	voltage_N 0;
}

object triplex_node:148 {
	name Node_15226676714_CA_TX;
	parent Node_15226676714_CA_M;
	phases AS;
	nominal_voltage 120;
	latitude 48N38'7.313";
	longitude 118W49'29.372";
	power_1 5.19589458373098+1.92387046696116j;
	voltage_1 120;
	voltage_2 120;
	voltage_N 0;
}

object transformer:149  {
	phases "BS";
	from Node_16956185953;
	to Node_16956185953_CB_M;
	configuration transformer_configuration:70;
}

object triplex_meter:150 {
	name Node_16956185953_CB_M;
	phases "BS";
	nominal_voltage 120;
	voltage_1 -60.000-103.923j;
	voltage_2 -60.000-103.923j;
	voltage_N 0;
}

object triplex_node:151 {
	name Node_16956185953_CB_TX;
	parent Node_16956185953_CB_M;
	phases BS;
	nominal_voltage 120;
	latitude 48N38'55.045";
	longitude 118W48'39.879";
	power_1 7.98061478492924+2.95208425337865j;
	voltage_1 -60.000-103.923j;
	voltage_2 -60.000-103.923j;
	voltage_N 0;
}

object transformer:152  {
	phases "A|B|C|N";
	from Node_1771690136;
	to Node_1771690136_A_M;
	configuration transformer_configuration:102;
}

object meter:153 {
	name Node_1771690136_A_M;
	phases "ABCN";
	nominal_voltage 7199.558;
	voltage_A 7199.558+0.0j;
	voltage_B -3599.779-6235.000j;
	voltage_C -3599.779+6235.000j;
}
object transformer:154  {
	phases "A|B|C|N";
	from Node_1952222406;
	to Node_1952222406_C_M;
	configuration transformer_configuration:103;
}

object meter:155 {
	name Node_1952222406_C_M;
	phases "ABCN";
	nominal_voltage 7199.558;
	voltage_A 7199.558+0.0j;
	voltage_B -3599.779-6235.000j;
	voltage_C -3599.779+6235.000j;
}
object transformer:156  {
	phases "AS";
	from 209625;
	to 209625_RA_M;
	configuration transformer_configuration:54;
}

object triplex_meter:157 {
	name 209625_RA_M;
	phases "AS";
	nominal_voltage 120;
	voltage_1 120;
	voltage_2 120;
	voltage_N 0;
}

object triplex_node:158 {
	name 209625_RA_TX;
	parent 209625_RA_M;
	phases AS;
	nominal_voltage 120;
	latitude 48N37'40.000";
	longitude 118W50'22.420";
	power_1 8.6598243062183+3.2064507782686j;
	voltage_1 120;
	voltage_2 120;
	voltage_N 0;
}

object transformer:159  {
	phases "A|B|C|N";
	from 211082;
	to 211082_C_M;
	configuration transformer_configuration:104;
}

object meter:160 {
	name 211082_C_M;
	phases "ABCN";
	nominal_voltage 7199.558;
	voltage_A 7199.558+0.0j;
	voltage_B -3599.779-6235.000j;
	voltage_C -3599.779+6235.000j;
}
object transformer:161  {
	phases "BS";
	from 9576;
	to 9576_RB_M;
	configuration transformer_configuration:70;
}

object triplex_meter:162 {
	name 9576_RB_M;
	phases "BS";
	nominal_voltage 120;
	voltage_1 -60.000-103.923j;
	voltage_2 -60.000-103.923j;
	voltage_N 0;
}

object triplex_node:163 {
	name 9576_RB_TX;
	parent 9576_RB_M;
	phases BS;
	nominal_voltage 120;
	latitude 48N37'34.815";
	longitude 118W50'16.869";
	power_1 7.98061478492924+2.95208425337865j;
	voltage_1 -60.000-103.923j;
	voltage_2 -60.000-103.923j;
	voltage_N 0;
}

object transformer:164  {
	phases "AS";
	from 215260;
	to 215260_RA_M;
	configuration transformer_configuration:55;
}

object triplex_meter:165 {
	name 215260_RA_M;
	phases "AS";
	nominal_voltage 120;
	voltage_1 120;
	voltage_2 120;
	voltage_N 0;
}

object triplex_node:166 {
	name 215260_RA_TX;
	parent 215260_RA_M;
	phases AS;
	nominal_voltage 120;
	latitude 48N37'28.081";
	longitude 118W50'11.718";
	power_1 34.6392972248732+12.8258031130744j;
	voltage_1 120;
	voltage_2 120;
	voltage_N 0;
}

object transformer:167  {
	phases "A|B|C|N";
	from 9148;
	to 9148_C_M;
	configuration transformer_configuration:105;
}

object meter:168 {
	name 9148_C_M;
	phases "ABCN";
	nominal_voltage 7199.558;
	voltage_A 7199.558+0.0j;
	voltage_B -3599.779-6235.000j;
	voltage_C -3599.779+6235.000j;
}
object transformer:169  {
	phases "A|B|C|N";
	from 9147;
	to 9147_C_M;
	configuration transformer_configuration:106;
}

object meter:170 {
	name 9147_C_M;
	phases "ABCN";
	nominal_voltage 7199.558;
	voltage_A 7199.558+0.0j;
	voltage_B -3599.779-6235.000j;
	voltage_C -3599.779+6235.000j;
}
object transformer:171  {
	phases "AS";
	from 9261;
	to 9261_RA_M;
	configuration transformer_configuration:57;
}

object triplex_meter:172 {
	name 9261_RA_M;
	phases "AS";
	nominal_voltage 120;
	voltage_1 120;
	voltage_2 120;
	voltage_N 0;
}

object triplex_node:173 {
	name 9261_RA_TX;
	parent 9261_RA_M;
	phases AS;
	nominal_voltage 120;
	latitude 48N37'39.921";
	longitude 118W50'27.466";
	power_1 2.59794729186549+0.96193523348058j;
	voltage_1 120;
	voltage_2 120;
	voltage_N 0;
}

object transformer:174  {
	phases "BS";
	from 9261;
	to 9261_RB_M;
	configuration transformer_configuration:75;
}

object triplex_meter:175 {
	name 9261_RB_M;
	phases "BS";
	nominal_voltage 120;
	voltage_1 -60.000-103.923j;
	voltage_2 -60.000-103.923j;
	voltage_N 0;
}

object triplex_node:176 {
	name 9261_RB_TX;
	parent 9261_RB_M;
	phases BS;
	nominal_voltage 120;
	latitude 48N37'39.921";
	longitude 118W50'27.466";
	power_1 2.39418443547877+0.885625276013595j;
	voltage_1 -60.000-103.923j;
	voltage_2 -60.000-103.923j;
	voltage_N 0;
}

object transformer:177  {
	phases "CS";
	from 9261;
	to 9261_RC_M;
	configuration transformer_configuration:88;
}

object triplex_meter:178 {
	name 9261_RC_M;
	phases "CS";
	nominal_voltage 120;
	voltage_1 -60.000+103.923j;
	voltage_2 -60.000+103.923j;
	voltage_N 0;
}

object triplex_node:179 {
	name 9261_RC_TX;
	parent 9261_RC_M;
	phases CS;
	nominal_voltage 120;
	latitude 48N37'39.921";
	longitude 118W50'27.466";
	power_1 0+0j;
	voltage_1 -60.000+103.923j;
	voltage_2 -60.000+103.923j;
	voltage_N 0;
}

object transformer:180  {
	phases "AS";
	from 9460;
	to 9460_RA_M;
	configuration transformer_configuration:54;
}

object triplex_meter:181 {
	name 9460_RA_M;
	phases "AS";
	nominal_voltage 120;
	voltage_1 120;
	voltage_2 120;
	voltage_N 0;
}

object triplex_node:182 {
	name 9460_RA_TX;
	parent 9460_RA_M;
	phases AS;
	nominal_voltage 120;
	latitude 48N37'32.600";
	longitude 118W50'29.638";
	power_1 8.6598243062183+3.2064507782686j;
	voltage_1 120;
	voltage_2 120;
	voltage_N 0;
}

object transformer:183  {
	phases "AS";
	from 9495;
	to 9495_RA_M;
	configuration transformer_configuration:53;
}

object triplex_meter:184 {
	name 9495_RA_M;
	phases "AS";
	nominal_voltage 120;
	voltage_1 120;
	voltage_2 120;
	voltage_N 0;
}

object triplex_node:185 {
	name 9495_RA_TX;
	parent 9495_RA_M;
	phases AS;
	nominal_voltage 120;
	latitude 48N37'27.755";
	longitude 118W50'25.277";
	power_1 17.3196486124366+6.4129015565372j;
	voltage_1 120;
	voltage_2 120;
	voltage_N 0;
}

object transformer:186  {
	phases "AS";
	from 9507;
	to 9507_RA_M;
	configuration transformer_configuration:53;
}

object triplex_meter:187 {
	name 9507_RA_M;
	phases "AS";
	nominal_voltage 120;
	voltage_1 120;
	voltage_2 120;
	voltage_N 0;
}

object triplex_node:188 {
	name 9507_RA_TX;
	parent 9507_RA_M;
	phases AS;
	nominal_voltage 120;
	latitude 48N37'27.791";
	longitude 118W50'22.364";
	power_1 17.3196486124366+6.4129015565372j;
	voltage_1 120;
	voltage_2 120;
	voltage_N 0;
}

object transformer:189  {
	phases "AS";
	from 9588;
	to 9588_RA_M;
	configuration transformer_configuration:53;
}

object triplex_meter:190 {
	name 9588_RA_M;
	phases "AS";
	nominal_voltage 120;
	voltage_1 120;
	voltage_2 120;
	voltage_N 0;
}

object triplex_node:191 {
	name 9588_RA_TX;
	parent 9588_RA_M;
	phases AS;
	nominal_voltage 120;
	latitude 48N37'27.928";
	longitude 118W50'15.039";
	power_1 17.3196486124366+6.4129015565372j;
	voltage_1 120;
	voltage_2 120;
	voltage_N 0;
}

object transformer:192  {
	phases "AS";
	from 9455;
	to 9455_RA_M;
	configuration transformer_configuration:54;
}

object triplex_meter:193 {
	name 9455_RA_M;
	phases "AS";
	nominal_voltage 120;
	voltage_1 120;
	voltage_2 120;
	voltage_N 0;
}

object triplex_node:194 {
	name 9455_RA_TX;
	parent 9455_RA_M;
	phases AS;
	nominal_voltage 120;
	latitude 48N37'30.978";
	longitude 118W50'29.680";
	power_1 8.6598243062183+3.2064507782686j;
	voltage_1 120;
	voltage_2 120;
	voltage_N 0;
}

object transformer:195  {
	phases "BS";
	from 9492;
	to 9492_RB_M;
	configuration transformer_configuration:76;
}

object triplex_meter:196 {
	name 9492_RB_M;
	phases "BS";
	nominal_voltage 120;
	voltage_1 -60.000-103.923j;
	voltage_2 -60.000-103.923j;
	voltage_N 0;
}

object triplex_node:197 {
	name 9492_RB_TX;
	parent 9492_RB_M;
	phases BS;
	nominal_voltage 120;
	latitude 48N37'36.470";
	longitude 118W50'26.677";
	power_1 4.78836887095755+1.77125055202719j;
	voltage_1 -60.000-103.923j;
	voltage_2 -60.000-103.923j;
	voltage_N 0;
}

object transformer:198  {
	phases "AS";
	from 602893;
	to 602893_RA_M;
	configuration transformer_configuration:53;
}

object triplex_meter:199 {
	name 602893_RA_M;
	phases "AS";
	nominal_voltage 120;
	voltage_1 120;
	voltage_2 120;
	voltage_N 0;
}

object triplex_node:200 {
	name 602893_RA_TX;
	parent 602893_RA_M;
	phases AS;
	nominal_voltage 120;
	latitude 48N37'34.329";
	longitude 118W50'29.603";
	power_1 17.3196486124366+6.4129015565372j;
	voltage_1 120;
	voltage_2 120;
	voltage_N 0;
}

object transformer:201  {
	phases "AS";
	from 9411;
	to 9411_RA_M;
	configuration transformer_configuration:53;
}

object triplex_meter:202 {
	name 9411_RA_M;
	phases "AS";
	nominal_voltage 120;
	voltage_1 120;
	voltage_2 120;
	voltage_N 0;
}

object triplex_node:203 {
	name 9411_RA_TX;
	parent 9411_RA_M;
	phases AS;
	nominal_voltage 120;
	latitude 48N37'34.198";
	longitude 118W50'34.674";
	power_1 17.3196486124366+6.4129015565372j;
	voltage_1 120;
	voltage_2 120;
	voltage_N 0;
}

object transformer:204  {
	phases "AS";
	from 9403;
	to 9403_RA_M;
	configuration transformer_configuration:58;
}

object triplex_meter:205 {
	name 9403_RA_M;
	phases "AS";
	nominal_voltage 120;
	voltage_1 120;
	voltage_2 120;
	voltage_N 0;
}

object triplex_node:206 {
	name 9403_RA_TX;
	parent 9403_RA_M;
	phases AS;
	nominal_voltage 120;
	latitude 48N37'30.976";
	longitude 118W50'34.763";
	power_1 25.9794729186549+9.6193523348058j;
	voltage_1 120;
	voltage_2 120;
	voltage_N 0;
}

object transformer:207  {
	phases "BS";
	from 9516;
	to 9516_RB_M;
	configuration transformer_configuration:68;
}

object triplex_meter:208 {
	name 9516_RB_M;
	phases "BS";
	nominal_voltage 120;
	voltage_1 -60.000-103.923j;
	voltage_2 -60.000-103.923j;
	voltage_N 0;
}

object triplex_node:209 {
	name 9516_RB_TX;
	parent 9516_RB_M;
	phases BS;
	nominal_voltage 120;
	latitude 48N37'38.080";
	longitude 118W50'24.537";
	power_1 15.9612295698585+5.9041685067573j;
	voltage_1 -60.000-103.923j;
	voltage_2 -60.000-103.923j;
	voltage_N 0;
}

object transformer:210  {
	phases "BS";
	from 9590;
	to 9590_RB_M;
	configuration transformer_configuration:71;
}

object triplex_meter:211 {
	name 9590_RB_M;
	phases "BS";
	nominal_voltage 120;
	voltage_1 -60.000-103.923j;
	voltage_2 -60.000-103.923j;
	voltage_N 0;
}

object triplex_node:212 {
	name 9590_RB_TX;
	parent 9590_RB_M;
	phases BS;
	nominal_voltage 120;
	latitude 48N37'38.227";
	longitude 118W50'16.789";
	power_1 15.9612295698585+5.9041685067573j;
	voltage_1 -60.000-103.923j;
	voltage_2 -60.000-103.923j;
	voltage_N 0;
}

object transformer:213  {
	phases "AS";
	from 9569;
	to 9569_RA_M;
	configuration transformer_configuration:53;
}

object triplex_meter:214 {
	name 9569_RA_M;
	phases "AS";
	nominal_voltage 120;
	voltage_1 120;
	voltage_2 120;
	voltage_N 0;
}

object triplex_node:215 {
	name 9569_RA_TX;
	parent 9569_RA_M;
	phases AS;
	nominal_voltage 120;
	latitude 48N37'27.827";
	longitude 118W50'19.347";
	power_1 17.3196486124366+6.4129015565372j;
	voltage_1 120;
	voltage_2 120;
	voltage_N 0;
}

object transformer:216  {
	phases "BS";
	from 9563;
	to 9563_RB_M;
	configuration transformer_configuration:70;
}

object triplex_meter:217 {
	name 9563_RB_M;
	phases "BS";
	nominal_voltage 120;
	voltage_1 -60.000-103.923j;
	voltage_2 -60.000-103.923j;
	voltage_N 0;
}

object triplex_node:218 {
	name 9563_RB_TX;
	parent 9563_RB_M;
	phases BS;
	nominal_voltage 120;
	latitude 48N37'31.370";
	longitude 118W50'19.442";
	power_1 7.98061478492924+2.95208425337865j;
	voltage_1 -60.000-103.923j;
	voltage_2 -60.000-103.923j;
	voltage_N 0;
}

object transformer:219  {
	phases "BS";
	from 9540;
	to 9540_RB_M;
	configuration transformer_configuration:71;
}

object triplex_meter:220 {
	name 9540_RB_M;
	phases "BS";
	nominal_voltage 120;
	voltage_1 -60.000-103.923j;
	voltage_2 -60.000-103.923j;
	voltage_N 0;
}

object triplex_node:221 {
	name 9540_RB_TX;
	parent 9540_RB_M;
	phases BS;
	nominal_voltage 120;
	latitude 48N37'31.339";
	longitude 118W50'22.290";
	power_1 15.9612295698585+5.9041685067573j;
	voltage_1 -60.000-103.923j;
	voltage_2 -60.000-103.923j;
	voltage_N 0;
}

object transformer:222  {
	phases "BS";
	from 9509;
	to 9509_RB_M;
	configuration transformer_configuration:71;
}

object triplex_meter:223 {
	name 9509_RB_M;
	phases "BS";
	nominal_voltage 120;
	voltage_1 -60.000-103.923j;
	voltage_2 -60.000-103.923j;
	voltage_N 0;
}

object triplex_node:224 {
	name 9509_RB_TX;
	parent 9509_RB_M;
	phases BS;
	nominal_voltage 120;
	latitude 48N37'31.303";
	longitude 118W50'25.240";
	power_1 15.9612295698585+5.9041685067573j;
	voltage_1 -60.000-103.923j;
	voltage_2 -60.000-103.923j;
	voltage_N 0;
}

object transformer:225  {
	phases "BS";
	from 9620;
	to 9620_RB_M;
	configuration transformer_configuration:71;
}

object triplex_meter:226 {
	name 9620_RB_M;
	phases "BS";
	nominal_voltage 120;
	voltage_1 -60.000-103.923j;
	voltage_2 -60.000-103.923j;
	voltage_N 0;
}

object triplex_node:227 {
	name 9620_RB_TX;
	parent 9620_RB_M;
	phases BS;
	nominal_voltage 120;
	latitude 48N37'31.455";
	longitude 118W50'12.559";
	power_1 15.9612295698585+5.9041685067573j;
	voltage_1 -60.000-103.923j;
	voltage_2 -60.000-103.923j;
	voltage_N 0;
}

object transformer:228  {
	phases "BS";
	from 9625;
	to 9625_RB_M;
	configuration transformer_configuration:71;
}

object triplex_meter:229 {
	name 9625_RB_M;
	phases "BS";
	nominal_voltage 120;
	voltage_1 -60.000-103.923j;
	voltage_2 -60.000-103.923j;
	voltage_N 0;
}

object triplex_node:230 {
	name 9625_RB_TX;
	parent 9625_RB_M;
	phases BS;
	nominal_voltage 120;
	latitude 48N37'31.498";
	longitude 118W50'9.553";
	power_1 15.9612295698585+5.9041685067573j;
	voltage_1 -60.000-103.923j;
	voltage_2 -60.000-103.923j;
	voltage_N 0;
}

object transformer:231  {
	phases "BS";
	from 9655;
	to 9655_RB_M;
	configuration transformer_configuration:70;
}

object triplex_meter:232 {
	name 9655_RB_M;
	phases "BS";
	nominal_voltage 120;
	voltage_1 -60.000-103.923j;
	voltage_2 -60.000-103.923j;
	voltage_N 0;
}

object triplex_node:233 {
	name 9655_RB_TX;
	parent 9655_RB_M;
	phases BS;
	nominal_voltage 120;
	latitude 48N37'30.407";
	longitude 118W50'7.958";
	power_1 7.98061478492924+2.95208425337865j;
	voltage_1 -60.000-103.923j;
	voltage_2 -60.000-103.923j;
	voltage_N 0;
}

object transformer:234  {
	phases "BS";
	from 9643;
	to 9643_RB_M;
	configuration transformer_configuration:67;
}

object triplex_meter:235 {
	name 9643_RB_M;
	phases "BS";
	nominal_voltage 120;
	voltage_1 -60.000-103.923j;
	voltage_2 -60.000-103.923j;
	voltage_N 0;
}

object triplex_node:236 {
	name 9643_RB_TX;
	parent 9643_RB_M;
	phases BS;
	nominal_voltage 120;
	latitude 48N37'33.470";
	longitude 118W50'10.193";
	power_1 7.98061478492924+2.95208425337865j;
	voltage_1 -60.000-103.923j;
	voltage_2 -60.000-103.923j;
	voltage_N 0;
}

object transformer:237  {
	phases "BS";
	from 9629;
	to 9629_RB_M;
	configuration transformer_configuration:67;
}

object triplex_meter:238 {
	name 9629_RB_M;
	phases "BS";
	nominal_voltage 120;
	voltage_1 -60.000-103.923j;
	voltage_2 -60.000-103.923j;
	voltage_N 0;
}

object triplex_node:239 {
	name 9629_RB_TX;
	parent 9629_RB_M;
	phases BS;
	nominal_voltage 120;
	latitude 48N37'35.529";
	longitude 118W50'12.275";
	power_1 7.98061478492924+2.95208425337865j;
	voltage_1 -60.000-103.923j;
	voltage_2 -60.000-103.923j;
	voltage_N 0;
}

object transformer:240  {
	phases "BS";
	from 9614;
	to 9614_RB_M;
	configuration transformer_configuration:70;
}

object triplex_meter:241 {
	name 9614_RB_M;
	phases "BS";
	nominal_voltage 120;
	voltage_1 -60.000-103.923j;
	voltage_2 -60.000-103.923j;
	voltage_N 0;
}

object triplex_node:242 {
	name 9614_RB_TX;
	parent 9614_RB_M;
	phases BS;
	nominal_voltage 120;
	latitude 48N37'33.113";
	longitude 118W50'14.570";
	power_1 7.98061478492924+2.95208425337865j;
	voltage_1 -60.000-103.923j;
	voltage_2 -60.000-103.923j;
	voltage_N 0;
}

object transformer:243  {
	phases "BS";
	from 9521;
	to 9521_RB_M;
	configuration transformer_configuration:71;
}

object triplex_meter:244 {
	name 9521_RB_M;
	phases "BS";
	nominal_voltage 120;
	voltage_1 -60.000-103.923j;
	voltage_2 -60.000-103.923j;
	voltage_N 0;
}

object triplex_node:245 {
	name 9521_RB_TX;
	parent 9521_RB_M;
	phases BS;
	nominal_voltage 120;
	latitude 48N37'34.724";
	longitude 118W50'24.523";
	power_1 15.9612295698585+5.9041685067573j;
	voltage_1 -60.000-103.923j;
	voltage_2 -60.000-103.923j;
	voltage_N 0;
}

object transformer:246  {
	phases "BS";
	from 9526;
	to 9526_RB_M;
	configuration transformer_configuration:71;
}

object triplex_meter:247 {
	name 9526_RB_M;
	phases "BS";
	nominal_voltage 120;
	voltage_1 -60.000-103.923j;
	voltage_2 -60.000-103.923j;
	voltage_N 0;
}

object triplex_node:248 {
	name 9526_RB_TX;
	parent 9526_RB_M;
	phases BS;
	nominal_voltage 120;
	latitude 48N37'34.767";
	longitude 118W50'21.835";
	power_1 15.9612295698585+5.9041685067573j;
	voltage_1 -60.000-103.923j;
	voltage_2 -60.000-103.923j;
	voltage_N 0;
}

object transformer:249  {
	phases "BS";
	from 9549;
	to 9549_RB_M;
	configuration transformer_configuration:71;
}

object triplex_meter:250 {
	name 9549_RB_M;
	phases "BS";
	nominal_voltage 120;
	voltage_1 -60.000-103.923j;
	voltage_2 -60.000-103.923j;
	voltage_N 0;
}

object triplex_node:251 {
	name 9549_RB_TX;
	parent 9549_RB_M;
	phases BS;
	nominal_voltage 120;
	latitude 48N37'34.782";
	longitude 118W50'19.125";
	power_1 15.9612295698585+5.9041685067573j;
	voltage_1 -60.000-103.923j;
	voltage_2 -60.000-103.923j;
	voltage_N 0;
}

object transformer:252  {
	phases "BS";
	from 9523;
	to 9523_RB_M;
	configuration transformer_configuration:70;
}

object triplex_meter:253 {
	name 9523_RB_M;
	phases "BS";
	nominal_voltage 120;
	voltage_1 -60.000-103.923j;
	voltage_2 -60.000-103.923j;
	voltage_N 0;
}

object triplex_node:254 {
	name 9523_RB_TX;
	parent 9523_RB_M;
	phases BS;
	nominal_voltage 120;
	latitude 48N37'36.500";
	longitude 118W50'24.523";
	power_1 7.98061478492924+2.95208425337865j;
	voltage_1 -60.000-103.923j;
	voltage_2 -60.000-103.923j;
	voltage_N 0;
}

object transformer:255  {
	phases "BS";
	from 9604;
	to 9604_RB_M;
	configuration transformer_configuration:71;
}

object triplex_meter:256 {
	name 9604_RB_M;
	phases "BS";
	nominal_voltage 120;
	voltage_1 -60.000-103.923j;
	voltage_2 -60.000-103.923j;
	voltage_N 0;
}

object triplex_node:257 {
	name 9604_RB_TX;
	parent 9604_RB_M;
	phases BS;
	nominal_voltage 120;
	latitude 48N37'31.419";
	longitude 118W50'15.461";
	power_1 15.9612295698585+5.9041685067573j;
	voltage_1 -60.000-103.923j;
	voltage_2 -60.000-103.923j;
	voltage_N 0;
}

object transformer:258  {
	phases "BS";
	from 9583;
	to 9583_RB_M;
	configuration transformer_configuration:75;
}

object triplex_meter:259 {
	name 9583_RB_M;
	phases "BS";
	nominal_voltage 120;
	voltage_1 -60.000-103.923j;
	voltage_2 -60.000-103.923j;
	voltage_N 0;
}

object triplex_node:260 {
	name 9583_RB_TX;
	parent 9583_RB_M;
	phases BS;
	nominal_voltage 120;
	latitude 48N37'38.229";
	longitude 118W50'17.727";
	power_1 3.1922459139717+1.18083370135146j;
	voltage_1 -60.000-103.923j;
	voltage_2 -60.000-103.923j;
	voltage_N 0;
}

object transformer:261  {
	phases "BS";
	from 9578;
	to 9578_RB_M;
	configuration transformer_configuration:71;
}

object triplex_meter:262 {
	name 9578_RB_M;
	phases "BS";
	nominal_voltage 120;
	voltage_1 -60.000-103.923j;
	voltage_2 -60.000-103.923j;
	voltage_N 0;
}

object triplex_node:263 {
	name 9578_RB_TX;
	parent 9578_RB_M;
	phases BS;
	nominal_voltage 120;
	latitude 48N37'38.209";
	longitude 118W50'19.095";
	power_1 15.9612295698585+5.9041685067573j;
	voltage_1 -60.000-103.923j;
	voltage_2 -60.000-103.923j;
	voltage_N 0;
}

object transformer:264  {
	phases "BS";
	from 9551;
	to 9551_RB_M;
	configuration transformer_configuration:71;
}

object triplex_meter:265 {
	name 9551_RB_M;
	phases "BS";
	nominal_voltage 120;
	voltage_1 -60.000-103.923j;
	voltage_2 -60.000-103.923j;
	voltage_N 0;
}

object triplex_node:266 {
	name 9551_RB_TX;
	parent 9551_RB_M;
	phases BS;
	nominal_voltage 120;
	latitude 48N37'38.175";
	longitude 118W50'21.787";
	power_1 15.9612295698585+5.9041685067573j;
	voltage_1 -60.000-103.923j;
	voltage_2 -60.000-103.923j;
	voltage_N 0;
}

object transformer:267  {
	phases "BS";
	from 9812;
	to 9812_RB_M;
	configuration transformer_configuration:71;
}

object triplex_meter:268 {
	name 9812_RB_M;
	phases "BS";
	nominal_voltage 120;
	voltage_1 -60.000-103.923j;
	voltage_2 -60.000-103.923j;
	voltage_N 0;
}

object triplex_node:269 {
	name 9812_RB_TX;
	parent 9812_RB_M;
	phases BS;
	nominal_voltage 120;
	latitude 48N37'17.482";
	longitude 118W50'23.808";
	power_1 15.9612295698585+5.9041685067573j;
	voltage_1 -60.000-103.923j;
	voltage_2 -60.000-103.923j;
	voltage_N 0;
}

object transformer:270  {
	phases "BS";
	from 9835;
	to 9835_RB_M;
	configuration transformer_configuration:71;
}

object triplex_meter:271 {
	name 9835_RB_M;
	phases "BS";
	nominal_voltage 120;
	voltage_1 -60.000-103.923j;
	voltage_2 -60.000-103.923j;
	voltage_N 0;
}

object triplex_node:272 {
	name 9835_RB_TX;
	parent 9835_RB_M;
	phases BS;
	nominal_voltage 120;
	latitude 48N37'17.507";
	longitude 118W50'21.564";
	power_1 15.9612295698585+5.9041685067573j;
	voltage_1 -60.000-103.923j;
	voltage_2 -60.000-103.923j;
	voltage_N 0;
}

object transformer:273  {
	phases "BS";
	from 9857;
	to 9857_RB_M;
	configuration transformer_configuration:71;
}

object triplex_meter:274 {
	name 9857_RB_M;
	phases "BS";
	nominal_voltage 120;
	voltage_1 -60.000-103.923j;
	voltage_2 -60.000-103.923j;
	voltage_N 0;
}

object triplex_node:275 {
	name 9857_RB_TX;
	parent 9857_RB_M;
	phases BS;
	nominal_voltage 120;
	latitude 48N37'17.533";
	longitude 118W50'19.354";
	power_1 15.9612295698585+5.9041685067573j;
	voltage_1 -60.000-103.923j;
	voltage_2 -60.000-103.923j;
	voltage_N 0;
}

object transformer:276  {
	phases "BS";
	from 9880;
	to 9880_RB_M;
	configuration transformer_configuration:68;
}

object triplex_meter:277 {
	name 9880_RB_M;
	phases "BS";
	nominal_voltage 120;
	voltage_1 -60.000-103.923j;
	voltage_2 -60.000-103.923j;
	voltage_N 0;
}

object triplex_node:278 {
	name 9880_RB_TX;
	parent 9880_RB_M;
	phases BS;
	nominal_voltage 120;
	latitude 48N37'17.825";
	longitude 118W50'15.684";
	power_1 15.9612295698585+5.9041685067573j;
	voltage_1 -60.000-103.923j;
	voltage_2 -60.000-103.923j;
	voltage_N 0;
}

object transformer:279  {
	phases "BS";
	from 9887;
	to 9887_RB_M;
	configuration transformer_configuration:68;
}

object triplex_meter:280 {
	name 9887_RB_M;
	phases "BS";
	nominal_voltage 120;
	voltage_1 -60.000-103.923j;
	voltage_2 -60.000-103.923j;
	voltage_N 0;
}

object triplex_node:281 {
	name 9887_RB_TX;
	parent 9887_RB_M;
	phases BS;
	nominal_voltage 120;
	latitude 48N37'17.849";
	longitude 118W50'14.319";
	power_1 15.9612295698585+5.9041685067573j;
	voltage_1 -60.000-103.923j;
	voltage_2 -60.000-103.923j;
	voltage_N 0;
}

object transformer:282  {
	phases "A|B|C|N";
	from 9704;
	to 9704_C_M;
	configuration transformer_configuration:107;
}

object meter:283 {
	name 9704_C_M;
	phases "ABCN";
	nominal_voltage 7199.558;
	voltage_A 7199.558+0.0j;
	voltage_B -3599.779-6235.000j;
	voltage_C -3599.779+6235.000j;
}
object transformer:284  {
	phases "A|B|C|N";
	from 9699;
	to 9699_C_M;
	configuration transformer_configuration:108;
}

object meter:285 {
	name 9699_C_M;
	phases "ABCN";
	nominal_voltage 7199.558;
	voltage_A 7199.558+0.0j;
	voltage_B -3599.779-6235.000j;
	voltage_C -3599.779+6235.000j;
}
object transformer:286  {
	phases "A|B|C|N";
	from 9725;
	to 9725_C_M;
	configuration transformer_configuration:108;
}

object meter:287 {
	name 9725_C_M;
	phases "ABCN";
	nominal_voltage 7199.558;