// $Id: R2-12.47-2.glm 1132 2008-11-18 22:36:10Z dchassin $ 
//*********************************************

clock { 
	 timezone CST+6CDT;
	 timestamp '2000-01-01 0:00:00';
}

//*********************************************
// modules
module powerflow;


object fuse:869 {
	name R2-12-47-2_fuse_1;
	phases "AN";
	from node:599;
	to node:815;
	current_limit 100;
	status CLOSED;
}

object fuse:878 {
	name R2-12-47-2_fuse_2;
	phases "BN";
	from node:459;
	to node:574;
	current_limit 100;
	status OPEN;
}

object fuse:881 {
	name R2-12-47-2_fuse_3;
	phases "CN";
	from node:463;
	to node:572;
	current_limit 100;
	status CLOSED;
}

object fuse:882 {
	name R2-12-47-2_fuse_4;
	phases "CN";
	from node:464;
	to node:573;
	current_limit 100;
	status CLOSED;
}

object fuse:883 {
	name R2-12-47-2_fuse_5;
	phases "BN";
	from node:466;
	to node:577;
	current_limit 100;
	status CLOSED;
}

object fuse:887 {
	name R2-12-47-2_fuse_6;
	phases "BCN";
	from node:469;
	to node:819;
	current_limit 100;
	status CLOSED;
}

object fuse:888 {
	name R2-12-47-2_fuse_7;
	phases "AN";
	from node:470;
	to node:602;
	current_limit 100;
	status CLOSED;
}

object fuse:889 {
	name R2-12-47-2_fuse_8;
	phases "ABCN";
	from node:473;
	to node:461;
	current_limit 100;
	status CLOSED;
}

object fuse:892 {
	name R2-12-47-2_fuse_9;
	phases "ABCN";
	from node:476;
	to node:475;
	current_limit 100;
	status CLOSED;
}

object fuse:899 {
	name R2-12-47-2_fuse_10;
	phases "AN";
	from node:481;
	to node:591;
	current_limit 100;
	status CLOSED;
}

object fuse:900 {
	name R2-12-47-2_fuse_11;
	phases "AN";
	from node:482;
	to node:478;
	current_limit 100;
	status CLOSED;
}

object fuse:903 {
	name R2-12-47-2_fuse_12;
	phases "CN";
	from node:486;
	to node:487;
	current_limit 100;
	status CLOSED;
}

object fuse:908 {
	name R2-12-47-2_fuse_13;
	phases "AN";
	from node:490;
	to node:666;
	current_limit 100;
	status CLOSED;
}

object fuse:909 {
	name R2-12-47-2_fuse_14;
	phases "ABN";
	from node:492;
	to node:488;
	current_limit 100;
	status CLOSED;
}

object fuse:911 {
	name R2-12-47-2_fuse_15;
	phases "ABCN";
	from node:495;
	to node:578;
	current_limit 100;
	status CLOSED;
}

object fuse:914 {
	name R2-12-47-2_fuse_16;
	phases "AN";
	from node:496;
	to node:630;
	current_limit 100;
	status CLOSED;
}

object fuse:918 {
	name R2-12-47-2_fuse_17;
	phases "AN";
	from node:500;
	to node:629;
	current_limit 100;
	status CLOSED;
}

object fuse:920 {
	name R2-12-47-2_fuse_18;
	phases "CN";
	from node:501;
	to node:788;
	current_limit 100;
	status CLOSED;
}

object fuse:921 {
	name R2-12-47-2_fuse_19;
	phases "ACN";
	from node:503;
	to node:532;
	current_limit 3000.0;
	status CLOSED;
}

object fuse:922 {
	name R2-12-47-2_fuse_20;
	phases "ABCN";
	from node:503;
	to node:582;
	current_limit 100;
	status CLOSED;
}

object fuse:925 {
	name R2-12-47-2_fuse_21;
	phases "CN";
	from node:505;
	to node:514;
	current_limit 100;
	status CLOSED;
}

object fuse:928 {
	name R2-12-47-2_fuse_22;
	phases "CN";
	from node:510;
	to node:513;
	current_limit 100;
	status CLOSED;
}

object fuse:930 {
	name R2-12-47-2_fuse_23;
	phases "BN";
	from node:511;
	to node:749;
	current_limit 100;
	status CLOSED;
}

object fuse:931 {
	name R2-12-47-2_fuse_24;
	phases "BN";
	from node:512;
	to node:758;
	current_limit 100;
	status CLOSED;
}

object fuse:938 {
	name R2-12-47-2_fuse_25;
	phases "BN";
	from node:518;
	to node:791;
	current_limit 100;
	status CLOSED;
}

object fuse:940 {
	name R2-12-47-2_fuse_26;
	phases "BN";
	from node:519;
	to node:786;
	current_limit 100;
	status CLOSED;
}

object fuse:941 {
	name R2-12-47-2_fuse_27;
	phases "BN";
	from node:520;
	to node:519;
	current_limit 100;
	status CLOSED;
}

object fuse:944 {
	name R2-12-47-2_fuse_28;
	phases "ABCN";
	from node:521;
	to node:528;
	current_limit 100;
	status CLOSED;
}

object fuse:952 {
	name R2-12-47-2_fuse_29;
	phases "BN";
	from node:527;
	to node:783;
	current_limit 100;
	status CLOSED;
}

object fuse:956 {
	name R2-12-47-2_fuse_30;
	phases "CN";
	from node:529;
	to node:781;
	current_limit 100;
	status CLOSED;
}

object fuse:958 {
	name R2-12-47-2_fuse_31;
	phases "CN";
	from node:530;
	to node:531;
	current_limit 100;
	status CLOSED;
}

object fuse:961 {
	name R2-12-47-2_fuse_32;
	phases "AN";
	from node:535;
	to node:746;
	current_limit 100;
	status CLOSED;
}

object fuse:962 {
	name R2-12-47-2_fuse_33;
	phases "ABCN";
	from node:536;
	to node:712;
	current_limit 100;
	status CLOSED;
}

object fuse:966 {
	name R2-12-47-2_fuse_34;
	phases "CN";
	from node:540;
	to node:665;
	current_limit 100;
	status CLOSED;
}

object fuse:967 {
	name R2-12-47-2_fuse_35;
	phases "BN";
	from node:540;
	to node:668;
	current_limit 100;
	status CLOSED;
}

object fuse:969 {
	name R2-12-47-2_fuse_36;
	phases "AN";
	from node:541;
	to node:700;
	current_limit 100;
	status CLOSED;
}

object fuse:971 {
	name R2-12-47-2_fuse_37;
	phases "CN";
	from node:542;
	to node:704;
	current_limit 100;
	status CLOSED;
}

object fuse:977 {
	name R2-12-47-2_fuse_38;
	phases "BN";
	from node:550;
	to node:621;
	current_limit 100;
	status CLOSED;
}

object fuse:983 {
	name R2-12-47-2_fuse_39;
	phases "AN";
	from node:557;
	to node:739;
	current_limit 100;
	status CLOSED;
}

object fuse:984 {
	name R2-12-47-2_fuse_40;
	phases "CN";
	from node:559;
	to node:723;
	current_limit 100;
	status CLOSED;
}

object fuse:985 {
	name R2-12-47-2_fuse_41;
	phases "AN";
	from node:559;
	to node:731;
	current_limit 100;
	status CLOSED;
}

object fuse:986 {
	name R2-12-47-2_fuse_42;
	phases "BN";
	from node:562;
	to node:709;
	current_limit 100;
	status CLOSED;
}

object fuse:987 {
	name R2-12-47-2_fuse_43;
	phases "CN";
	from node:563;
	to node:685;
	current_limit 100;
	status CLOSED;
}

object fuse:988 {
	name R2-12-47-2_fuse_44;
	phases "CN";
	from node:564;
	to node:706;
	current_limit 100;
	status CLOSED;
}

object fuse:989 {
	name R2-12-47-2_fuse_45;
	phases "CN";
	from node:564;
	to node:716;
	current_limit 100;
	status CLOSED;
}

object fuse:991 {
	name R2-12-47-2_fuse_46;
	phases "BN";
	from node:567;
	to node:590;
	current_limit 100;
	status CLOSED;
}

object fuse:996 {
	name R2-12-47-2_fuse_47;
	phases "BN";
	from node:813;
	to node:571;
	current_limit 3000.0;
	status CLOSED;
}

object fuse:1003 {
	name R2-12-47-2_fuse_48;
	phases "BN";
	from node:596;
	to node:614;
	current_limit 100;
	status CLOSED;
}

object fuse:1004 {
	name R2-12-47-2_fuse_49;
	phases "BN";
	from node:597;
	to node:494;
	current_limit 100;
	status CLOSED;
}

object fuse:1005 {
	name R2-12-47-2_fuse_50;
	phases "ABCN";
	from node:597;
	to node:495;
	current_limit 100;
	status CLOSED;
}

object fuse:1065 {
	name R2-12-47-2_fuse_51;
	phases "AN";
	from node:653;
	to node:697;
	current_limit 3000.0;
	status CLOSED;
}


object line_configuration:822 {
	conductor_A overhead_line_conductor:13;
	conductor_N overhead_line_conductor:13;
	spacing line_spacing:821;
}

object line_configuration:824 {
	conductor_A overhead_line_conductor:31;
	conductor_B overhead_line_conductor:31;
	conductor_C overhead_line_conductor:31;
	conductor_N overhead_line_conductor:31;
	spacing line_spacing:823;
}

object line_configuration:825 {
	conductor_A overhead_line_conductor:11;
	conductor_N overhead_line_conductor:11;
	spacing line_spacing:821;
}

object line_configuration:826 {
	conductor_A overhead_line_conductor:21;
	conductor_N overhead_line_conductor:21;
	spacing line_spacing:821;
}

object line_configuration:828 {
	conductor_C overhead_line_conductor:13;
	conductor_N overhead_line_conductor:13;
	spacing line_spacing:827;
}

object line_configuration:829 {
	conductor_C overhead_line_conductor:13;
	conductor_N overhead_line_conductor:13;
	spacing line_spacing:827;
}

object line_configuration:830 {
	conductor_A overhead_line_conductor:35;
	conductor_B overhead_line_conductor:35;
	conductor_C overhead_line_conductor:35;
	conductor_N overhead_line_conductor:35;
	spacing line_spacing:823;
}

object line_configuration:832 {
	conductor_B underground_line_conductor:42;
	conductor_N underground_line_conductor:42;
	spacing line_spacing:831;
}

object line_configuration:833 {
	conductor_A overhead_line_conductor:29;
	conductor_B overhead_line_conductor:29;
	conductor_C overhead_line_conductor:29;
	conductor_N overhead_line_conductor:29;
	spacing line_spacing:823;
}

object line_configuration:834 {
	conductor_A underground_line_conductor:48;
	conductor_B underground_line_conductor:48;
	conductor_C underground_line_conductor:48;
	conductor_N underground_line_conductor:48;
	spacing line_spacing:823;
}

object line_configuration:835 {
	conductor_C underground_line_conductor:42;
	conductor_N underground_line_conductor:42;
	spacing line_spacing:827;
}

object line_configuration:836 {
	conductor_B overhead_line_conductor:13;
	conductor_N overhead_line_conductor:13;
	spacing line_spacing:831;
}

object line_configuration:837 {
	conductor_C overhead_line_conductor:11;
	conductor_N overhead_line_conductor:11;
	spacing line_spacing:827;
}

object line_configuration:839 {
	conductor_B overhead_line_conductor:13;
	conductor_C overhead_line_conductor:13;
	conductor_N overhead_line_conductor:13;
	spacing line_spacing:838;
}

object line_configuration:840 {
	conductor_A underground_line_conductor:42;
	conductor_B underground_line_conductor:42;
	conductor_C underground_line_conductor:42;
	conductor_N underground_line_conductor:42;
	spacing line_spacing:823;
}

object line_configuration:841 {
	conductor_A overhead_line_conductor:13;
	conductor_B overhead_line_conductor:13;
	conductor_C overhead_line_conductor:13;
	conductor_N overhead_line_conductor:13;
	spacing line_spacing:823;
}

object line_configuration:842 {
	conductor_A overhead_line_conductor:23;
	conductor_B overhead_line_conductor:23;
	conductor_C overhead_line_conductor:23;
	conductor_N overhead_line_conductor:23;
	spacing line_spacing:823;
}

object line_configuration:843 {
	conductor_A overhead_line_conductor:15;
	conductor_N overhead_line_conductor:15;
	spacing line_spacing:821;
}

object line_configuration:844 {
	conductor_A overhead_line_conductor:15;
	conductor_N overhead_line_conductor:15;
	spacing line_spacing:821;
}

object line_configuration:845 {
	conductor_B overhead_line_conductor:13;
	conductor_N overhead_line_conductor:13;
	spacing line_spacing:831;
}

object line_configuration:847 {
	conductor_A overhead_line_conductor:13;
	conductor_B overhead_line_conductor:13;
	conductor_N overhead_line_conductor:13;
	spacing line_spacing:846;
}

object line_configuration:848 {
	conductor_A overhead_line_conductor:2;
	conductor_B overhead_line_conductor:2;
	conductor_C overhead_line_conductor:2;
	conductor_N overhead_line_conductor:2;
	spacing line_spacing:823;
}

object line_configuration:849 {
	conductor_A overhead_line_conductor:2;
	conductor_B overhead_line_conductor:2;
	conductor_C overhead_line_conductor:2;
	conductor_N overhead_line_conductor:2;
	spacing line_spacing:823;
}

object line_configuration:851 {
	conductor_A overhead_line_conductor:15;
	conductor_C overhead_line_conductor:15;
	conductor_N overhead_line_conductor:15;
	spacing line_spacing:850;
}

object line_configuration:852 {
	conductor_C overhead_line_conductor:11;
	conductor_N overhead_line_conductor:11;
	spacing line_spacing:827;
}

object line_configuration:853 {
	conductor_C overhead_line_conductor:11;
	conductor_N overhead_line_conductor:11;
	spacing line_spacing:827;
}

object line_configuration:854 {
	conductor_B overhead_line_conductor:21;
	conductor_N overhead_line_conductor:21;
	spacing line_spacing:831;
}

object line_configuration:855 {
	conductor_B overhead_line_conductor:23;
	conductor_N overhead_line_conductor:23;
	spacing line_spacing:831;
}

object line_configuration:856 {
	conductor_A overhead_line_conductor:13;
	conductor_B overhead_line_conductor:13;
	conductor_C overhead_line_conductor:13;
	conductor_N overhead_line_conductor:13;
	spacing line_spacing:823;
}

object line_configuration:857 {
	conductor_A overhead_line_conductor:35;
	conductor_B overhead_line_conductor:35;
	conductor_C overhead_line_conductor:35;
	conductor_N overhead_line_conductor:35;
	spacing line_spacing:823;
}

object line_configuration:858 {
	conductor_A overhead_line_conductor:15;
	conductor_N overhead_line_conductor:15;
	spacing line_spacing:821;
}

object line_configuration:859 {
	conductor_A overhead_line_conductor:15;
	conductor_N overhead_line_conductor:15;
	spacing line_spacing:821;
}

object line_configuration:860 {
	conductor_B overhead_line_conductor:15;
	conductor_N overhead_line_conductor:15;
	spacing line_spacing:831;
}

object line_configuration:861 {
	conductor_A overhead_line_conductor:13;
	conductor_C overhead_line_conductor:13;
	conductor_N overhead_line_conductor:13;
	spacing line_spacing:850;
}

object line_configuration:862 {
	conductor_A overhead_line_conductor:21;
	conductor_B overhead_line_conductor:21;
	conductor_C overhead_line_conductor:21;
	conductor_N overhead_line_conductor:21;
	spacing line_spacing:823;
}

object line_configuration:863 {
	conductor_B overhead_line_conductor:13;
	conductor_N overhead_line_conductor:13;
	spacing line_spacing:831;
}

object line_configuration:864 {
	conductor_C underground_line_conductor:43;
	conductor_N underground_line_conductor:43;
	spacing line_spacing:827;
}

object line_configuration:865 {
	conductor_B overhead_line_conductor:11;
	conductor_N overhead_line_conductor:11;
	spacing line_spacing:831;
}

object line_configuration:866 {
	conductor_A overhead_line_conductor:13;
	conductor_N overhead_line_conductor:13;
	spacing line_spacing:821;
}

object line_configuration:867 {
	conductor_C overhead_line_conductor:21;
	conductor_N overhead_line_conductor:21;
	spacing line_spacing:827;
}

object line_configuration:868 {
	conductor_A overhead_line_conductor:11;
	conductor_N overhead_line_conductor:11;
	spacing line_spacing:821;
}


object line_spacing:821 {
	distance_AN 0.0 in;
}

object line_spacing:823 {
	distance_AB 0.0 in;
	distance_BC 0.0 in;
	distance_AC 0.0 in;
	distance_AN 0.0 in;
	distance_BN 0.0 in;
	distance_CN 0.0 in;
}

object line_spacing:827 {
	distance_CN 0.0 in;
}

object line_spacing:831 {
	distance_BN 0.0 in;
}

object line_spacing:838 {
	distance_BC 0.0 in;
	distance_BN 0.0 in;
	distance_CN 0.0 in;
}

object line_spacing:846 {
	distance_AB 0.0 in;
	distance_AN 0.0 in;
	distance_BN 0.0 in;
}

object line_spacing:850 {
	distance_AC 0.0 in;
	distance_AN 0.0 in;
	distance_CN 0.0 in;
}


object load {
	name R2-12-47-2_load_1;
	parent R2-12-47-2_meter_1;
	phases "ABCN";
	nominal_voltage 7199.558;
	voltage_A 7199.558+0.0j;
	voltage_B -3599.779-6235.000j;
	voltage_C -3599.779+6235.000j;
	constant_power_A 99926.914+81191.971j;
	constant_power_B 90146.677+69095.856j;
	constant_power_C 88901.857+63581.116j;
	load_class "C";
}

object load {
	name R2-12-47-2_load_2;
	parent R2-12-47-2_meter_2;
	phases "ABCN";
	nominal_voltage 7199.558;
	voltage_A 7199.558+0.0j;
	voltage_B -3599.779-6235.000j;
	voltage_C -3599.779+6235.000j;
	constant_power_A 59954.949+48714.208j;
	constant_power_B 54086.925+41456.684j;
	constant_power_C 53340.047+38147.907j;
	load_class "C";
}

object load {
	name R2-12-47-2_load_3;
	parent R2-12-47-2_meter_3;
	phases "ABCN";
	nominal_voltage 7199.558;
	voltage_A 7199.558+0.0j;
	voltage_B -3599.779-6235.000j;
	voltage_C -3599.779+6235.000j;
	constant_power_A 8993.242+7307.131j;
	constant_power_B 13521.731+10364.171j;
	constant_power_C 8001.007+5722.186j;
	load_class "C";
}

object load {
	name R2-12-47-2_load_4;
	parent R2-12-47-2_meter_4;
	phases "ABCN";
	nominal_voltage 7199.558;
	voltage_A 7199.558+0.0j;
	voltage_B -3599.779-6235.000j;
	voltage_C -3599.779+6235.000j;
	constant_power_A 29977.475+24357.104j;
	constant_power_B 27043.462+20728.342j;
	constant_power_C 26670.024+19073.953j;
	load_class "C";
}

object load {
	name R2-12-47-2_load_5;
	parent R2-12-47-2_meter_5;
	phases "ABCN";
	nominal_voltage 7199.558;
	voltage_A 7199.558+0.0j;
	voltage_B -3599.779-6235.000j;
	voltage_C -3599.779+6235.000j;
	constant_power_A 29977.475+24357.104j;
	constant_power_B 27043.462+20728.342j;
	constant_power_C 26670.024+19073.953j;
	load_class "C";
}

object load {
	name R2-12-47-2_load_6;
	parent R2-12-47-2_meter_6;
	phases "ABCN";
	nominal_voltage 7199.558;
	voltage_A 7199.558+0.0j;
	voltage_B -3599.779-6235.000j;
	voltage_C -3599.779+6235.000j;
	constant_power_A 14988.737+12178.552j;
	constant_power_B 27043.462+20728.342j;
	constant_power_C 13335.012+9536.977j;
	load_class "C";
}

object load {
	name R2-12-47-2_load_7;
	parent R2-12-47-2_meter_7;
	phases "ABCN";
	nominal_voltage 7199.558;
	voltage_A 7199.558+0.0j;
	voltage_B -3599.779-6235.000j;
	voltage_C -3599.779+6235.000j;
	constant_power_A 80939.181+65764.181j;
	constant_power_B 73017.348+55966.524j;
	constant_power_C 72009.064+51499.674j;
	load_class "C";
}


object meter:124 {
	name R2-12-47-2_meter_1;
	phases "ABCN";
	nominal_voltage 7199.558;
	voltage_A 7199.558+0.0j;
	voltage_B -3599.779-6235.000j;
	voltage_C -3599.779+6235.000j;
}

object meter:144 {
	name R2-12-47-2_meter_2;
	phases "ABCN";
	nominal_voltage 7199.558;
	voltage_A 7199.558+0.0j;
	voltage_B -3599.779-6235.000j;
	voltage_C -3599.779+6235.000j;
}

object meter:200 {
	name R2-12-47-2_meter_3;
	phases "ABCN";
	nominal_voltage 7199.558;
	voltage_A 7199.558+0.0j;
	voltage_B -3599.779-6235.000j;
	voltage_C -3599.779+6235.000j;
}

object meter:202 {
	name R2-12-47-2_meter_4;
	phases "ABCN";
	nominal_voltage 7199.558;
	voltage_A 7199.558+0.0j;
	voltage_B -3599.779-6235.000j;
	voltage_C -3599.779+6235.000j;
}

object meter:204 {
	name R2-12-47-2_meter_5;
	phases "ABCN";
	nominal_voltage 7199.558;
	voltage_A 7199.558+0.0j;
	voltage_B -3599.779-6235.000j;
	voltage_C -3599.779+6235.000j;
}

object meter:392 {
	name R2-12-47-2_meter_6;
	phases "ABCN";
	nominal_voltage 7199.558;
	voltage_A 7199.558+0.0j;
	voltage_B -3599.779-6235.000j;
	voltage_C -3599.779+6235.000j;
}

object meter:397 {
	name R2-12-47-2_meter_7;
	phases "ABCN";
	nominal_voltage 7199.558;
	voltage_A 7199.558+0.0j;
	voltage_B -3599.779-6235.000j;
	voltage_C -3599.779+6235.000j;
}

// Meter at feeder
object meter:452 {
	name R2-12-47-2_meter_8;
	phases "ABCN";
	nominal_voltage 7199.558;
	voltage_A 7199.558+0.0j;
	voltage_B -3599.779-6235.000j;
	voltage_C -3599.779+6235.000j;
}


object node:454 {
	name R2-12-47-2_node_1;
	phases "AN";
	nominal_voltage 7199.558;
	voltage_A 7199.558+0.0j;
}

object node:455 {
	name R2-12-47-2_node_2;
	phases "AN";
	nominal_voltage 7199.558;
	voltage_A 7199.558+0.0j;
}

object node:456 {
	name R2-12-47-2_node_3;
	phases "CN";
	nominal_voltage 7199.558;
	voltage_C -3599.779+6235.000j;
}

object node:457 {
	name R2-12-47-2_node_4;
	phases "ABCN";
	nominal_voltage 7199.558;
	voltage_A 7199.558+0.0j;
	voltage_B -3599.779-6235.000j;
	voltage_C -3599.779+6235.000j;
}

object node:458 {
	name R2-12-47-2_node_5;
	phases "ABCN";
	nominal_voltage 7199.558;
	voltage_A 7199.558+0.0j;
	voltage_B -3599.779-6235.000j;
	voltage_C -3599.779+6235.000j;
}

object node:459 {
	name R2-12-47-2_node_6;
	phases "BN";
	nominal_voltage 7199.558;
	voltage_B -3599.779-6235.000j;
}

object node:461 {
	name R2-12-47-2_node_7;
	phases "ABCN";
	nominal_voltage 7199.558;
	voltage_A 7199.558+0.0j;
	voltage_B -3599.779-6235.000j;
	voltage_C -3599.779+6235.000j;
}

object node:462 {
	name R2-12-47-2_node_8;
	phases "ABCN";
	nominal_voltage 7199.558;
	voltage_A 7199.558+0.0j;
	voltage_B -3599.779-6235.000j;
	voltage_C -3599.779+6235.000j;
}

object node:463 {
	name R2-12-47-2_node_9;
	phases "ABCN";
	nominal_voltage 7199.558;
	voltage_A 7199.558+0.0j;
	voltage_B -3599.779-6235.000j;
	voltage_C -3599.779+6235.000j;
}

object node:464 {
	name R2-12-47-2_node_10;
	phases "CN";
	nominal_voltage 7199.558;
	voltage_C -3599.779+6235.000j;
}

object node:466 {
	name R2-12-47-2_node_11;
	phases "BN";
	nominal_voltage 7199.558;
	voltage_B -3599.779-6235.000j;
}

object node:468 {
	name R2-12-47-2_node_12;
	phases "BCN";
	nominal_voltage 7199.558;
	voltage_B -3599.779-6235.000j;
	voltage_C -3599.779+6235.000j;
}

object node:469 {
	name R2-12-47-2_node_13;
	phases "ABCN";
	nominal_voltage 7199.558;
	voltage_A 7199.558+0.0j;
	voltage_B -3599.779-6235.000j;
	voltage_C -3599.779+6235.000j;
}

object node:470 {
	name R2-12-47-2_node_14;
	phases "ABCN";
	nominal_voltage 7199.558;
	voltage_A 7199.558+0.0j;
	voltage_B -3599.779-6235.000j;
	voltage_C -3599.779+6235.000j;
}

object node:473 {
	name R2-12-47-2_node_15;
	phases "ABCN";
	nominal_voltage 7199.558;
	voltage_A 7199.558+0.0j;
	voltage_B -3599.779-6235.000j;
	voltage_C -3599.779+6235.000j;
}

object node:475 {
	name R2-12-47-2_node_16;
	phases "ABCN";
	nominal_voltage 7199.558;
	voltage_A 7199.558+0.0j;
	voltage_B -3599.779-6235.000j;
	voltage_C -3599.779+6235.000j;
}

object node:476 {
	name R2-12-47-2_node_17;
	phases "ABCN";
	nominal_voltage 7199.558;
	voltage_A 7199.558+0.0j;
	voltage_B -3599.779-6235.000j;
	voltage_C -3599.779+6235.000j;
}

object node:477 {
	name R2-12-47-2_node_18;
	phases "AN";
	nominal_voltage 7199.558;
	voltage_A 7199.558+0.0j;
}

object node:478 {
	name R2-12-47-2_node_19;
	phases "AN";
	nominal_voltage 7199.558;
	voltage_A 7199.558+0.0j;
}

object node:480 {
	name R2-12-47-2_node_20;
	phases "BN";
	nominal_voltage 7199.558;
	voltage_B -3599.779-6235.000j;
}

object node:481 {
	name R2-12-47-2_node_21;
	phases "ABCN";
	nominal_voltage 7199.558;
	voltage_A 7199.558+0.0j;
	voltage_B -3599.779-6235.000j;
	voltage_C -3599.779+6235.000j;
}

object node:482 {
	name R2-12-47-2_node_22;
	phases "ABCN";
	nominal_voltage 7199.558;
	voltage_A 7199.558+0.0j;
	voltage_B -3599.779-6235.000j;
	voltage_C -3599.779+6235.000j;
}

object node:483 {
	name R2-12-47-2_node_23;
	phases "ABCN";
	nominal_voltage 7199.558;
	voltage_A 7199.558+0.0j;
	voltage_B -3599.779-6235.000j;
	voltage_C -3599.779+6235.000j;
}

object node:484 {
	name R2-12-47-2_node_24;
	phases "ABCN";
	nominal_voltage 7199.558;
	voltage_A 7199.558+0.0j;
	voltage_B -3599.779-6235.000j;
	voltage_C -3599.779+6235.000j;
}

object node:485 {
	name R2-12-47-2_node_25;
	phases "ABCN";
	nominal_voltage 7199.558;
	voltage_A 7199.558+0.0j;
	voltage_B -3599.779-6235.000j;
	voltage_C -3599.779+6235.000j;
}

object node:486 {
	name R2-12-47-2_node_26;
	phases "ABCN";
	nominal_voltage 7199.558;
	voltage_A 7199.558+0.0j;
	voltage_B -3599.779-6235.000j;
	voltage_C -3599.779+6235.000j;
}

object node:487 {
	name R2-12-47-2_node_27;
	phases "CN";
	nominal_voltage 7199.558;
	voltage_C -3599.779+6235.000j;
}

object node:488 {
	name R2-12-47-2_node_28;
	phases "ABN";
	nominal_voltage 7199.558;
	voltage_A 7199.558+0.0j;
	voltage_B -3599.779-6235.000j;
}

object node:489 {
	name R2-12-47-2_node_29;
	phases "BN";
	nominal_voltage 7199.558;
	voltage_B -3599.779-6235.000j;
}

object node:490 {
	name R2-12-47-2_node_30;
	phases "AN";
	nominal_voltage 7199.558;
	voltage_A 7199.558+0.0j;
}

object node:492 {
	name R2-12-47-2_node_31;
	phases "ABN";
	nominal_voltage 7199.558;
	voltage_A 7199.558+0.0j;
	voltage_B -3599.779-6235.000j;
}

object node:493 {
	name R2-12-47-2_node_32;
	phases "ABCN";
	nominal_voltage 7199.558;
	voltage_A 7199.558+0.0j;
	voltage_B -3599.779-6235.000j;
	voltage_C -3599.779+6235.000j;
}

object node:494 {
	name R2-12-47-2_node_33;
	phases "BN";
	nominal_voltage 7199.558;
	voltage_B -3599.779-6235.000j;
}

object node:495 {
	name R2-12-47-2_node_34;
	phases "ABCN";
	nominal_voltage 7199.558;
	voltage_A 7199.558+0.0j;
	voltage_B -3599.779-6235.000j;
	voltage_C -3599.779+6235.000j;
}

object node:496 {
	name R2-12-47-2_node_35;
	phases "ABCN";
	nominal_voltage 7199.558;
	voltage_A 7199.558+0.0j;
	voltage_B -3599.779-6235.000j;
	voltage_C -3599.779+6235.000j;
}

object node:498 {
	name R2-12-47-2_node_36;
	phases "ABCN";
	nominal_voltage 7199.558;
	voltage_A 7199.558+0.0j;
	voltage_B -3599.779-6235.000j;
	voltage_C -3599.779+6235.000j;
}

object node:500 {
	name R2-12-47-2_node_37;
	phases "ABCN";
	nominal_voltage 7199.558;
	voltage_A 7199.558+0.0j;
	voltage_B -3599.779-6235.000j;
	voltage_C -3599.779+6235.000j;
}

object node:501 {
	name R2-12-47-2_node_38;
	phases "ABCN";
	nominal_voltage 7199.558;
	voltage_A 7199.558+0.0j;
	voltage_B -3599.779-6235.000j;
	voltage_C -3599.779+6235.000j;
}

object node:502 {
	name R2-12-47-2_node_39;
	phases "ABCN";
	nominal_voltage 7199.558;
	voltage_A 7199.558+0.0j;
	voltage_B -3599.779-6235.000j;
	voltage_C -3599.779+6235.000j;
}

object node:503 {
	name R2-12-47-2_node_40;
	phases "ABCN";
	nominal_voltage 7199.558;
	voltage_A 7199.558+0.0j;
	voltage_B -3599.779-6235.000j;
	voltage_C -3599.779+6235.000j;
}

object node:504 {
	name R2-12-47-2_node_41;
	phases "ABCN";
	nominal_voltage 7199.558;
	voltage_A 7199.558+0.0j;
	voltage_B -3599.779-6235.000j;
	voltage_C -3599.779+6235.000j;
}

object node:505 {
	name R2-12-47-2_node_42;
	phases "ABCN";
	nominal_voltage 7199.558;
	voltage_A 7199.558+0.0j;
	voltage_B -3599.779-6235.000j;
	voltage_C -3599.779+6235.000j;
}

object node:506 {
	name R2-12-47-2_node_43;
	phases "ABCN";
	nominal_voltage 7199.558;
	voltage_A 7199.558+0.0j;
	voltage_B -3599.779-6235.000j;
	voltage_C -3599.779+6235.000j;
}

object node:510 {
	name R2-12-47-2_node_44;
	phases "ABCN";
	nominal_voltage 7199.558;
	voltage_A 7199.558+0.0j;
	voltage_B -3599.779-6235.000j;
	voltage_C -3599.779+6235.000j;
}

object node:511 {
	name R2-12-47-2_node_45;
	phases "ABCN";
	nominal_voltage 7199.558;
	voltage_A 7199.558+0.0j;
	voltage_B -3599.779-6235.000j;
	voltage_C -3599.779+6235.000j;
}

object node:512 {
	name R2-12-47-2_node_46;
	phases "BN";
	nominal_voltage 7199.558;
	voltage_B -3599.779-6235.000j;
}

object node:513 {
	name R2-12-47-2_node_47;
	phases "CN";
	nominal_voltage 7199.558;
	voltage_C -3599.779+6235.000j;
}

object node:514 {
	name R2-12-47-2_node_48;
	phases "CN";
	nominal_voltage 7199.558;
	voltage_C -3599.779+6235.000j;
}

object node:515 {
	name R2-12-47-2_node_49;
	phases "AN";
	nominal_voltage 7199.558;
	voltage_A 7199.558+0.0j;
}

object node:516 {
	name R2-12-47-2_node_50;
	phases "ABCN";
	nominal_voltage 7199.558;
	voltage_A 7199.558+0.0j;
	voltage_B -3599.779-6235.000j;
	voltage_C -3599.779+6235.000j;
}

object node:517 {
	name R2-12-47-2_node_51;
	phases "CN";
	nominal_voltage 7199.558;
	voltage_C -3599.779+6235.000j;
}

object node:518 {
	name R2-12-47-2_node_52;
	phases "BN";
	nominal_voltage 7199.558;
	voltage_B -3599.779-6235.000j;
}

object node:519 {
	name R2-12-47-2_node_53;
	phases "BN";
	nominal_voltage 7199.558;
	voltage_B -3599.779-6235.000j;
}

object node:520 {
	name R2-12-47-2_node_54;
	phases "ABCN";
	nominal_voltage 7199.558;
	voltage_A 7199.558+0.0j;
	voltage_B -3599.779-6235.000j;
	voltage_C -3599.779+6235.000j;
}

object node:521 {
	name R2-12-47-2_node_55;
	phases "ABCN";
	nominal_voltage 7199.558;
	voltage_A 7199.558+0.0j;
	voltage_B -3599.779-6235.000j;
	voltage_C -3599.779+6235.000j;
}

object node:522 {
	name R2-12-47-2_node_56;
	phases "AN";
	nominal_voltage 7199.558;
	voltage_A 7199.558+0.0j;
}

object node:523 {
	name R2-12-47-2_node_57;
	phases "ABCN";
	nominal_voltage 7199.558;
	voltage_A 7199.558+0.0j;
	voltage_B -3599.779-6235.000j;
	voltage_C -3599.779+6235.000j;
}

object node:525 {
	name R2-12-47-2_node_58;
	phases "AN";
	nominal_voltage 7199.558;
	voltage_A 7199.558+0.0j;
}

object node:526 {
	name R2-12-47-2_node_59;
	phases "AN";
	nominal_voltage 7199.558;
	voltage_A 7199.558+0.0j;
}

object node:527 {
	name R2-12-47-2_node_60;
	phases "ABCN";
	nominal_voltage 7199.558;
	voltage_A 7199.558+0.0j;
	voltage_B -3599.779-6235.000j;
	voltage_C -3599.779+6235.000j;
}

object node:528 {
	name R2-12-47-2_node_61;
	phases "ABCN";
	nominal_voltage 7199.558;
	voltage_A 7199.558+0.0j;
	voltage_B -3599.779-6235.000j;
	voltage_C -3599.779+6235.000j;
}

object node:529 {
	name R2-12-47-2_node_62;
	phases "ABCN";
	nominal_voltage 7199.558;
	voltage_A 7199.558+0.0j;
	voltage_B -3599.779-6235.000j;
	voltage_C -3599.779+6235.000j;
}

object node:530 {
	name R2-12-47-2_node_63;
	phases "ABCN";
	nominal_voltage 7199.558;
	voltage_A 7199.558+0.0j;
	voltage_B -3599.779-6235.000j;
	voltage_C -3599.779+6235.000j;
}

object node:531 {
	name R2-12-47-2_node_64;
	phases "CN";
	nominal_voltage 7199.558;
	voltage_C -3599.779+6235.000j;
}

object node:532 {
	name R2-12-47-2_node_65;
	phases "ACN";
	nominal_voltage 7199.558;
	voltage_A 7199.558+0.0j;
	voltage_C -3599.779+6235.000j;
}

object node:535 {
	name R2-12-47-2_node_66;
	phases "ABCN";
	nominal_voltage 7199.558;
	voltage_A 7199.558+0.0j;
	voltage_B -3599.779-6235.000j;