// $Id: R2-12.47-3.glm 228 2009-05-27 18:16:10Z ychen $ 
//*********************************************

clock { 
	 timestamp '2000-01-01 0:00:00';
	 timezone EST+5EDT;
}

//*********************************************
// modules
module powerflow;

object fuse:1947 {
	name R2-12-47-3_fuse_1;
	phases "ABCN";
	from R2-12-47-3_node_787;
	to R2-12-47-3_node_108;
	current_limit 10000.0;
	status CLOSED;
}

object fuse:1954 {
	name R2-12-47-3_fuse_2;
	phases "ABCN";
	from R2-12-47-3_node_791;
	to R2-12-47-3_node_444;
	current_limit 10000.0;
	status CLOSED;
}

object fuse:2061 {
	name R2-12-47-3_fuse_3;
	phases "ABCN";
	from R2-12-47-3_node_607;
	to R2-12-47-3_node_453;
	current_limit 10000.0;
	status CLOSED;
}

object fuse:2066 {
	name R2-12-47-3_fuse_4;
	phases "ACN";
	from R2-12-47-3_node_581;
	to R2-12-47-3_node_582;
	current_limit 10000.0;
	status OPEN;
}

object fuse:2086 {
	name R2-12-47-3_fuse_5;
	phases "ABCN";
	from R2-12-47-3_node_608;
	to R2-12-47-3_node_382;
	current_limit 10000.0;
	status CLOSED;
}

object fuse:2099 {
	name R2-12-47-3_fuse_6;
	phases "ABCN";
	from R2-12-47-3_node_601;
	to R2-12-47-3_node_587;
	current_limit 10000.0;
	status CLOSED;
}

object fuse:2100 {
	name R2-12-47-3_fuse_7;
	phases "ABCN";
	from R2-12-47-3_node_603;
	to R2-12-47-3_node_605;
	current_limit 10000.0;
	status CLOSED;
}

object fuse:2101 {
	name R2-12-47-3_fuse_8;
	phases "CN";
	from R2-12-47-3_node_624;
	to R2-12-47-3_node_623;
	current_limit 10000.0;
	status CLOSED;
}

object fuse:2103 {
	name R2-12-47-3_fuse_9;
	phases "ABCN";
	from R2-12-47-3_node_613;
	to R2-12-47-3_node_614;
	current_limit 10000.0;
	status CLOSED;
}

object fuse:2104 {
	name R2-12-47-3_fuse_10;
	phases "CN";
	from R2-12-47-3_node_613;
	to R2-12-47-3_node_616;
	current_limit 10000.0;
	status CLOSED;
}

object fuse:2130 {
	name R2-12-47-3_fuse_11;
	phases "CN";
	from R2-12-47-3_node_640;
	to R2-12-47-3_node_641;
	current_limit 10000.0;
	status CLOSED;
}

object fuse:2131 {
	name R2-12-47-3_fuse_12;
	phases "ABCN";
	from R2-12-47-3_node_630;
	to R2-12-47-3_node_631;
	current_limit 10000.0;
	status CLOSED;
}

object fuse:2132 {
	name R2-12-47-3_fuse_13;
	phases "ABCN";
	from R2-12-47-3_node_632;
	to R2-12-47-3_node_633;
	current_limit 10000.0;
	status CLOSED;
}

object fuse:2203 {
	name R2-12-47-3_fuse_14;
	phases "AN";
	from R2-12-47-3_node_691;
	to R2-12-47-3_node_662;
	current_limit 10000.0;
	status CLOSED;
}

object fuse:2204 {
	name R2-12-47-3_fuse_15;
	phases "ABCN";
	from R2-12-47-3_node_689;
	to R2-12-47-3_node_656;
	current_limit 10000.0;
	status CLOSED;
}

object fuse:2205 {
	name R2-12-47-3_fuse_16;
	phases "ABCN";
	from R2-12-47-3_node_688;
	to R2-12-47-3_node_692;
	current_limit 10000.0;
	status CLOSED;
}

object fuse:2238 {
	name R2-12-47-3_fuse_17;
	phases "CN";
	from R2-12-47-3_node_715;
	to R2-12-47-3_node_714;
	current_limit 10000.0;
	status CLOSED;
}

object fuse:2240 {
	name R2-12-47-3_fuse_18;
	phases "ABCN";
	from R2-12-47-3_node_347;
	to R2-12-47-3_node_262;
	current_limit 10000.0;
	status CLOSED;
}

object fuse:2253 {
	name R2-12-47-3_fuse_19;
	phases "ABCN";
	from R2-12-47-3_node_379;
	to R2-12-47-3_node_531;
	current_limit 10000.0;
	status OPEN;
}

object fuse:2308 {
	name R2-12-47-3_fuse_20;
	phases "BN";
	from R2-12-47-3_node_759;
	to R2-12-47-3_node_754;
	current_limit 10000.0;
	status CLOSED;
}

object fuse:2309 {
	name R2-12-47-3_fuse_21;
	phases "ABCN";
	from R2-12-47-3_node_760;
	to R2-12-47-3_node_802;
	current_limit 10000.0;
	status CLOSED;
}

object fuse:2310 {
	name R2-12-47-3_fuse_22;
	phases "ABCN";
	from R2-12-47-3_node_761;
	to R2-12-47-3_node_757;
	current_limit 10000.0;
	status CLOSED;
}

object fuse:2312 {
	name R2-12-47-3_fuse_23;
	phases "CN";
	from R2-12-47-3_node_612;
	to R2-12-47-3_node_781;
	current_limit 10000.0;
	status CLOSED;
}

object fuse:2327 {
	name R2-12-47-3_fuse_24;
	phases "ACN";
	from R2-12-47-3_node_610;
	to R2-12-47-3_node_795;
	current_limit 10000.0;
	status CLOSED;
}

object fuse:2340 {
	name R2-12-47-3_fuse_25;
	phases "CN";
	from R2-12-47-3_node_596;
	to R2-12-47-3_node_772;
	current_limit 10000.0;
	status CLOSED;
}

object fuse:2341 {
	name R2-12-47-3_fuse_26;
	phases "CN";
	from R2-12-47-3_node_632;
	to R2-12-47-3_node_801;
	current_limit 10000.0;
	status CLOSED;
}

object fuse:2346 {
	name R2-12-47-3_fuse_27;
	phases "CN";
	from R2-12-47-3_node_647;
	to R2-12-47-3_node_271;
	current_limit 10000.0;
	status CLOSED;
}

object fuse:2353 {
	name R2-12-47-3_fuse_28;
	phases "CN";
	from R2-12-47-3_node_649;
	to R2-12-47-3_node_813;
	current_limit 10000.0;
	status CLOSED;
}

object fuse:2376 {
	name R2-12-47-3_fuse_29;
	phases "ABCN";
	from R2-12-47-3_node_561;
	to R2-12-47-3_node_562;
	current_limit 10000.0;
	status CLOSED;
}

object fuse:2389 {
	name R2-12-47-3_fuse_30;
	phases "ABCN";
	from R2-12-47-3_node_253;
	to R2-12-47-3_node_242;
	current_limit 10000.0;
	status CLOSED;
}

object fuse:2390 {
	name R2-12-47-3_fuse_31;
	phases "ABCN";
	from R2-12-47-3_node_253;
	to R2-12-47-3_node_42;
	current_limit 10000.0;
	status CLOSED;
}

object fuse:2535 {
	name R2-12-47-3_fuse_32;
	phases "ABCN";
	from R2-12-47-3_node_474;
	to R2-12-47-3_node_434;
	current_limit 10000.0;
	status CLOSED;
}

object fuse:2537 {
	name R2-12-47-3_fuse_33;
	phases "AN";
	from R2-12-47-3_node_474;
	to R2-12-47-3_node_499;
	current_limit 10000.0;
	status CLOSED;
}

object fuse:2541 {
	name R2-12-47-3_fuse_34;
	phases "AN";
	from R2-12-47-3_node_488;
	to R2-12-47-3_node_350;
	current_limit 10000.0;
	status CLOSED;
}

object fuse:2546 {
	name R2-12-47-3_fuse_35;
	phases "ABCN";
	from R2-12-47-3_node_430;
	to R2-12-47-3_node_438;
	current_limit 10000.0;
	status CLOSED;
}

object fuse:2560 {
	name R2-12-47-3_fuse_36;
	phases "ABCN";
	from R2-12-47-3_node_432;
	to R2-12-47-3_node_1;
	current_limit 10000.0;
	status CLOSED;
}

object fuse:2694 {
	name R2-12-47-3_fuse_37;
	phases "ABCN";
	from R2-12-47-3_node_9;
	to R2-12-47-3_node_41;
	current_limit 10000.0;
	status CLOSED;
}

object fuse:2695 {
	name R2-12-47-3_fuse_38;
	phases "ABCN";
	from R2-12-47-3_node_9;
	to R2-12-47-3_node_427;
	current_limit 10000.0;
	status CLOSED;
}

object fuse:2707 {
	name R2-12-47-3_fuse_39;
	phases "ABCN";
	from R2-12-47-3_node_58;
	to R2-12-47-3_node_401;
	current_limit 10000.0;
	status CLOSED;
}

object fuse:2708 {
	name R2-12-47-3_fuse_40;
	phases "ABCN";
	from R2-12-47-3_node_58;
	to R2-12-47-3_node_73;
	current_limit 10000.0;
	status CLOSED;
}

object fuse:2714 {
	name R2-12-47-3_fuse_41;
	phases "ABCN";
	from R2-12-47-3_node_308;
	to R2-12-47-3_node_106;
	current_limit 10000.0;
	status CLOSED;
}


object line_configuration:1896 {
	conductor_A underground_line_conductor:42;
	conductor_B underground_line_conductor:42;
	conductor_C underground_line_conductor:42;
	conductor_N underground_line_conductor:42;
	spacing line_spacing:1895;
}

object line_configuration:1898 {
	conductor_B underground_line_conductor:42;
	conductor_N underground_line_conductor:42;
	spacing line_spacing:1897;
}

object line_configuration:1900 {
	conductor_A underground_line_conductor:42;
	conductor_N underground_line_conductor:42;
	spacing line_spacing:1899;
}

object line_configuration:1902 {
	conductor_C underground_line_conductor:42;
	conductor_N underground_line_conductor:42;
	spacing line_spacing:1901;
}

object line_configuration:1904 {
	conductor_C underground_line_conductor:42;
	conductor_N underground_line_conductor:42;
	spacing line_spacing:1903;
}

object line_configuration:1905 {
	conductor_C underground_line_conductor:44;
	conductor_N underground_line_conductor:44;
	spacing line_spacing:1901;
}

object line_configuration:1907 {
	conductor_A overhead_line_conductor:11;
	conductor_B overhead_line_conductor:11;
	conductor_C overhead_line_conductor:11;
	conductor_N overhead_line_conductor:11;
	spacing line_spacing:1906;
}

object line_configuration:1909 {
	conductor_A overhead_line_conductor:11;
	conductor_C overhead_line_conductor:11;
	conductor_N overhead_line_conductor:11;
	spacing line_spacing:1908;
}

object line_configuration:1910 {
	conductor_A overhead_line_conductor:8;
	conductor_C overhead_line_conductor:8;
	conductor_N overhead_line_conductor:8;
	spacing line_spacing:1908;
}

object line_configuration:1911 {
	conductor_C underground_line_conductor:43;
	conductor_N underground_line_conductor:43;
	spacing line_spacing:1901;
}

object line_configuration:1912 {
	conductor_A overhead_line_conductor:8;
	conductor_B overhead_line_conductor:8;
	conductor_C overhead_line_conductor:8;
	conductor_N overhead_line_conductor:8;
	spacing line_spacing:1906;
}

object line_configuration:1913 {
	conductor_A overhead_line_conductor:31;
	conductor_B overhead_line_conductor:31;
	conductor_C overhead_line_conductor:31;
	conductor_N overhead_line_conductor:31;
	spacing line_spacing:1906;
}

object line_configuration:1915 {
	conductor_C overhead_line_conductor:11;
	conductor_N overhead_line_conductor:11;
	spacing line_spacing:1914;
}

object line_configuration:1916 {
	conductor_A underground_line_conductor:45;
	conductor_B underground_line_conductor:45;
	conductor_C underground_line_conductor:45;
	conductor_N underground_line_conductor:45;
	spacing line_spacing:1895;
}

object line_configuration:1917 {
	conductor_C underground_line_conductor:45;
	conductor_N underground_line_conductor:45;
	spacing line_spacing:1901;
}

object line_configuration:1919 {
	conductor_A underground_line_conductor:43;
	conductor_C underground_line_conductor:43;
	conductor_N underground_line_conductor:43;
	spacing line_spacing:1918;
}

object line_configuration:1920 {
	conductor_A overhead_line_conductor:7;
	conductor_C overhead_line_conductor:7;
	conductor_N overhead_line_conductor:7;
	spacing line_spacing:1908;
}

object line_configuration:1921 {
	conductor_A underground_line_conductor:43;
	conductor_N underground_line_conductor:43;
	spacing line_spacing:1899;
}

object line_configuration:1922 {
	conductor_A underground_line_conductor:46;
	conductor_B underground_line_conductor:46;
	conductor_C underground_line_conductor:46;
	conductor_N underground_line_conductor:46;
	spacing line_spacing:1895;
}

object line_configuration:1923 {
	conductor_A underground_line_conductor:44;
	conductor_B underground_line_conductor:44;
	conductor_C underground_line_conductor:44;
	conductor_N underground_line_conductor:44;
	spacing line_spacing:1906;
}

object line_configuration:1924 {
	conductor_A overhead_line_conductor:7;
	conductor_B overhead_line_conductor:7;
	conductor_C overhead_line_conductor:7;
	conductor_N overhead_line_conductor:7;
	spacing line_spacing:1906;
}

object line_configuration:1925 {
	conductor_A overhead_line_conductor:8;
	conductor_B overhead_line_conductor:8;
	conductor_C overhead_line_conductor:8;
	conductor_N overhead_line_conductor:8;
	spacing line_spacing:1906;
}

object line_configuration:1927 {
	conductor_B overhead_line_conductor:7;
	conductor_C overhead_line_conductor:7;
	conductor_N overhead_line_conductor:7;
	spacing line_spacing:1926;
}

object line_configuration:1929 {
	conductor_A overhead_line_conductor:8;
	conductor_N overhead_line_conductor:8;
	spacing line_spacing:1928;
}

object line_configuration:1930 {
	conductor_A overhead_line_conductor:11;
	conductor_N overhead_line_conductor:11;
	spacing line_spacing:1928;
}

object line_configuration:1931 {
	conductor_A underground_line_conductor:44;
	conductor_B underground_line_conductor:44;
	conductor_C underground_line_conductor:44;
	conductor_N underground_line_conductor:44;
	spacing line_spacing:1895;
}

object line_configuration:1932 {
	conductor_A underground_line_conductor:44;
	conductor_N underground_line_conductor:44;
	spacing line_spacing:1899;
}

object line_configuration:1934 {
	conductor_B overhead_line_conductor:8;
	conductor_N overhead_line_conductor:8;
	spacing line_spacing:1933;
}

object line_configuration:1935 {
	conductor_A overhead_line_conductor:27;
	conductor_B overhead_line_conductor:27;
	conductor_C overhead_line_conductor:27;
	conductor_N overhead_line_conductor:27;
	spacing line_spacing:1906;
}

object line_configuration:1936 {
	conductor_A overhead_line_conductor:33;
	conductor_B overhead_line_conductor:33;
	conductor_C overhead_line_conductor:33;
	conductor_N overhead_line_conductor:33;
	spacing line_spacing:1906;
}

object line_configuration:1937 {
	conductor_A overhead_line_conductor:19;
	conductor_B overhead_line_conductor:19;
	conductor_C overhead_line_conductor:19;
	conductor_N overhead_line_conductor:19;
	spacing line_spacing:1906;
}

object line_configuration:1938 {
	conductor_A underground_line_conductor:42;
	conductor_C underground_line_conductor:42;
	conductor_N underground_line_conductor:42;
	spacing line_spacing:1918;
}

object line_configuration:1939 {
	conductor_C overhead_line_conductor:27;
	conductor_N overhead_line_conductor:27;
	spacing line_spacing:1914;
}

object line_configuration:1941 {
	conductor_B underground_line_conductor:42;
	conductor_C underground_line_conductor:42;
	conductor_N underground_line_conductor:42;
	spacing line_spacing:1940;
}

object line_configuration:1943 {
	conductor_A underground_line_conductor:42;
	conductor_B underground_line_conductor:42;
	conductor_N underground_line_conductor:42;
	spacing line_spacing:1942;
}

object line_configuration:1945 {
	conductor_A overhead_line_conductor:11;
	conductor_N overhead_line_conductor:11;
	spacing line_spacing:1944;
}

object line_configuration:1946 {
	conductor_C underground_line_conductor:46;
	conductor_N underground_line_conductor:46;
	spacing line_spacing:1901;
}


object line_spacing:1895 {
	distance_AB 3.0 in;
	distance_BC 3.0 in;
	distance_AC 3.0 in;
	distance_AN 2.0 in;
	distance_BN 2.0 in;
	distance_CN 2.0 in;
}

object line_spacing:1897 {
	distance_BN 2.0 in;
}

object line_spacing:1899 {
	distance_AN 2.0 in;
}

object line_spacing:1901 {
	distance_CN 2.0 in;
}

object line_spacing:1903 {
	distance_CN 2.0 in;
}

object line_spacing:1906 {
	distance_AB 48.0 in;
	distance_BC 48.0 in;
	distance_AC 48.0 in;
	distance_AN 36.0 in;
	distance_BN 36.0 in;
	distance_CN 36.0 in;
}

object line_spacing:1908 {
	distance_AC 48.0 in;
	distance_AN 36.0 in;
	distance_CN 36.0 in;
}

object line_spacing:1914 {
	distance_CN 36.0 in;
}

object line_spacing:1918 {
	distance_AC 3.0 in;
	distance_AN 2.0 in;
	distance_CN 2.0 in;
}

object line_spacing:1926 {
	distance_BC 48.0 in;
	distance_BN 36.0 in;
	distance_CN 36.0 in;
}

object line_spacing:1928 {
	distance_AN 36.0 in;
}

object line_spacing:1933 {
	distance_BN 36.0 in;
}

object line_spacing:1940 {
	distance_BC 3.0 in;
	distance_BN 2.0 in;
	distance_CN 2.0 in;
}

object line_spacing:1942 {
	distance_AB 3.0 in;
	distance_AN 2.0 in;
	distance_BN 2.0 in;
}

object line_spacing:1944 {
	distance_AN 48.0 in;
}


object load {
	name R2-12-47-3_load_1;
	parent R2-12-47-3_meter_1;
	phases "ABCN";
	nominal_voltage 7199.558;
	voltage_A 7199.558+0.0j;
	voltage_B -3599.779-6235.000j;
	voltage_C -3599.779+6235.000j;
	constant_power_A 56563.695+28638.723j;
	constant_power_B 71482.173+35330.037j;
	constant_power_C 58895.838+28580.678j;
	load_class "C";
}

object load {
	name R2-12-47-3_load_2;
	parent R2-12-47-3_meter_2;
	phases "ABCN";
	nominal_voltage 7199.558;
	voltage_A 7199.558+0.0j;
	voltage_B -3599.779-6235.000j;
	voltage_C -3599.779+6235.000j;
	constant_power_A 2530.180+1281.054j;
	constant_power_B 3197.506+1580.366j;
	constant_power_C 2634.500+1278.457j;
	load_class "A";
}

object load {
	name R2-12-47-3_load_3;
	parent R2-12-47-3_meter_3;
	phases "ABCN";
	nominal_voltage 7199.558;
	voltage_A 7199.558+0.0j;
	voltage_B -3599.779-6235.000j;
	voltage_C -3599.779+6235.000j;
	constant_power_A 5060.360+2562.107j;
	constant_power_B 6395.013+3160.733j;
	constant_power_C 5269.001+2556.914j;
	load_class "A";
}

object load {
	name R2-12-47-3_load_4;
	parent R2-12-47-3_meter_4;
	phases "ABCN";
	nominal_voltage 7199.558;
	voltage_A 7199.558+0.0j;
	voltage_B -3599.779-6235.000j;
	voltage_C -3599.779+6235.000j;
	constant_power_A 5060.360+2562.107j;
	constant_power_B 6395.013+3160.733j;
	constant_power_C 5269.001+2556.914j;
	load_class "A";
}

object load {
	name R2-12-47-3_load_5;
	parent R2-12-47-3_meter_5;
	phases "ABCN";
	nominal_voltage 7199.558;
	voltage_A 7199.558+0.0j;
	voltage_B -3599.779-6235.000j;
	voltage_C -3599.779+6235.000j;
	constant_power_A 25301.801+12810.537j;
	constant_power_B 31975.064+15803.663j;
	constant_power_C 26345.005+12784.572j;
	load_class "C";
}

object load {
	name R2-12-47-3_load_6;
	parent R2-12-47-3_meter_6;
	phases "ABCN";
	nominal_voltage 7199.558;
	voltage_A 7199.558+0.0j;
	voltage_B -3599.779-6235.000j;
	voltage_C -3599.779+6235.000j;
	constant_power_A 5060.360+2562.107j;
	constant_power_B 6395.013+3160.733j;
	constant_power_C 5269.001+2556.914j;
	load_class "A";
}

object load {
	name R2-12-47-3_load_7;
	parent R2-12-47-3_meter_7;
	phases "ABCN";
	nominal_voltage 7199.558;
	voltage_A 7199.558+0.0j;
	voltage_B -3599.779-6235.000j;
	voltage_C -3599.779+6235.000j;
	constant_power_A 33735.735+17080.716j;
	constant_power_B 42633.418+21071.551j;
	constant_power_C 35126.673+17046.096j;
	load_class "A";
}

object load {
	name R2-12-47-3_load_8;
	parent R2-12-47-3_meter_8;
	phases "ABCN";
	nominal_voltage 7199.558;
	voltage_A 7199.558+0.0j;
	voltage_B -3599.779-6235.000j;
	voltage_C -3599.779+6235.000j;
	constant_power_A 33735.735+17080.716j;
	constant_power_B 42633.418+21071.551j;
	constant_power_C 35126.673+17046.096j;
	load_class "C";
}


object meter:210 {
	name R2-12-47-3_meter_1;
	phases "ABCN";
	nominal_voltage 7199.558;
	voltage_A 7199.558+0.0j;
	voltage_B -3599.779-6235.000j;
	voltage_C -3599.779+6235.000j;
}

object meter:227 {
	name R2-12-47-3_meter_2;
	phases "ABCN";
	nominal_voltage 7199.558;
	voltage_A 7199.558+0.0j;
	voltage_B -3599.779-6235.000j;
	voltage_C -3599.779+6235.000j;
}

object meter:244 {
	name R2-12-47-3_meter_3;
	phases "ABCN";
	nominal_voltage 7199.558;
	voltage_A 7199.558+0.0j;
	voltage_B -3599.779-6235.000j;
	voltage_C -3599.779+6235.000j;
}

object meter:246 {
	name R2-12-47-3_meter_4;
	phases "ABCN";
	nominal_voltage 7199.558;
	voltage_A 7199.558+0.0j;
	voltage_B -3599.779-6235.000j;
	voltage_C -3599.779+6235.000j;
}

object meter:314 {
	name R2-12-47-3_meter_5;
	phases "ABCN";
	nominal_voltage 7199.558;
	voltage_A 7199.558+0.0j;
	voltage_B -3599.779-6235.000j;
	voltage_C -3599.779+6235.000j;
}

object meter:328 {
	name R2-12-47-3_meter_6;
	phases "ABCN";
	nominal_voltage 7199.558;
	voltage_A 7199.558+0.0j;
	voltage_B -3599.779-6235.000j;
	voltage_C -3599.779+6235.000j;
}

object meter:441 {
	name R2-12-47-3_meter_7;
	phases "ABCN";
	nominal_voltage 7199.558;
	voltage_A 7199.558+0.0j;
	voltage_B -3599.779-6235.000j;
	voltage_C -3599.779+6235.000j;
}

object meter:464 {
	name R2-12-47-3_meter_8;
	phases "ABCN";
	nominal_voltage 7199.558;
	voltage_A 7199.558+0.0j;
	voltage_B -3599.779-6235.000j;
	voltage_C -3599.779+6235.000j;
}

// Meter at feeder
object meter:1452 {
	name R2-12-47-3_meter_9;
	phases "ABCN";
	nominal_voltage 7199.558;
	voltage_A 7199.558+0.0j;
	voltage_B -3599.779-6235.000j;
	voltage_C -3599.779+6235.000j;
}


object node:825 {
	name R2-12-47-3_node_1;
	phases "ABCN";
	nominal_voltage 7199.558;
	voltage_A 7199.558+0.0j;
	voltage_B -3599.779-6235.000j;
	voltage_C -3599.779+6235.000j;
}

object node:1185 {
	name R2-12-47-3_node_2;
	phases "BN";
	nominal_voltage 7199.558;
	voltage_B -3599.779-6235.000j;
}

object node:826 {
	name R2-12-47-3_node_3;
	phases "BN";
	nominal_voltage 7199.558;
	voltage_B -3599.779-6235.000j;
}

object node:1186 {
	name R2-12-47-3_node_4;
	phases "ABCN";
	nominal_voltage 7199.558;
	voltage_A 7199.558+0.0j;
	voltage_B -3599.779-6235.000j;
	voltage_C -3599.779+6235.000j;
}

object node:828 {
	name R2-12-47-3_node_5;
	phases "BN";
	nominal_voltage 7199.558;
	voltage_B -3599.779-6235.000j;
}

object node:829 {
	name R2-12-47-3_node_6;
	phases "BN";
	nominal_voltage 7199.558;
	voltage_B -3599.779-6235.000j;
}

object node:830 {
	name R2-12-47-3_node_7;
	phases "CN";
	nominal_voltage 7199.558;
	voltage_C -3599.779+6235.000j;
}

object node:831 {
	name R2-12-47-3_node_8;
	phases "BN";
	nominal_voltage 7199.558;
	voltage_B -3599.779-6235.000j;
}

object node:1187 {
	name R2-12-47-3_node_9;
	phases "ABCN";
	nominal_voltage 7199.558;
	voltage_A 7199.558+0.0j;
	voltage_B -3599.779-6235.000j;
	voltage_C -3599.779+6235.000j;
}

object node:832 {
	name R2-12-47-3_node_10;
	phases "ABCN";
	nominal_voltage 7199.558;
	voltage_A 7199.558+0.0j;
	voltage_B -3599.779-6235.000j;
	voltage_C -3599.779+6235.000j;
}

object node:1188 {
	name R2-12-47-3_node_11;
	phases "ABCN";
	nominal_voltage 7199.558;
	voltage_A 7199.558+0.0j;
	voltage_B -3599.779-6235.000j;
	voltage_C -3599.779+6235.000j;
}

object node:1190 {
	name R2-12-47-3_node_12;
	phases "ABCN";
	nominal_voltage 7199.558;
	voltage_A 7199.558+0.0j;
	voltage_B -3599.779-6235.000j;
	voltage_C -3599.779+6235.000j;
}

object node:1189 {
	name R2-12-47-3_node_13;
	phases "AN";
	nominal_voltage 7199.558;
	voltage_A 7199.558+0.0j;
}

object node:834 {
	name R2-12-47-3_node_14;
	phases "CN";
	nominal_voltage 7199.558;
	voltage_C -3599.779+6235.000j;
}

object node:1192 {
	name R2-12-47-3_node_15;
	phases "ABCN";
	nominal_voltage 7199.558;
	voltage_A 7199.558+0.0j;
	voltage_B -3599.779-6235.000j;
	voltage_C -3599.779+6235.000j;
}

object node:836 {
	name R2-12-47-3_node_16;
	phases "CN";
	nominal_voltage 7199.558;
	voltage_C -3599.779+6235.000j;
}

object node:1193 {
	name R2-12-47-3_node_17;
	phases "CN";
	nominal_voltage 7199.558;
	voltage_C -3599.779+6235.000j;
}

object node:1194 {
	name R2-12-47-3_node_18;
	phases "AN";
	nominal_voltage 7199.558;
	voltage_A 7199.558+0.0j;
}

object node:1195 {
	name R2-12-47-3_node_19;
	phases "CN";
	nominal_voltage 7199.558;
	voltage_C -3599.779+6235.000j;
}

object node:1196 {
	name R2-12-47-3_node_20;
	phases "ABCN";
	nominal_voltage 7199.558;
	voltage_A 7199.558+0.0j;
	voltage_B -3599.779-6235.000j;
	voltage_C -3599.779+6235.000j;
}

object node:837 {
	name R2-12-47-3_node_21;
	phases "CN";
	nominal_voltage 7199.558;
	voltage_C -3599.779+6235.000j;
}

object node:1197 {
	name R2-12-47-3_node_22;
	phases "AN";
	nominal_voltage 7199.558;
	voltage_A 7199.558+0.0j;
}

object node:1199 {
	name R2-12-47-3_node_23;
	phases "CN";
	nominal_voltage 7199.558;
	voltage_C -3599.779+6235.000j;
}

object node:1198 {
	name R2-12-47-3_node_24;
	phases "ABCN";
	nominal_voltage 7199.558;
	voltage_A 7199.558+0.0j;
	voltage_B -3599.779-6235.000j;
	voltage_C -3599.779+6235.000j;
}

object node:1201 {
	name R2-12-47-3_node_25;
	phases "BN";
	nominal_voltage 7199.558;
	voltage_B -3599.779-6235.000j;
}

object node:839 {
	name R2-12-47-3_node_26;
	phases "CN";
	nominal_voltage 7199.558;
	voltage_C -3599.779+6235.000j;
}

object node:1202 {
	name R2-12-47-3_node_27;
	phases "CN";
	nominal_voltage 7199.558;
	voltage_C -3599.779+6235.000j;
}

object node:1203 {
	name R2-12-47-3_node_28;
	phases "CN";
	nominal_voltage 7199.558;
	voltage_C -3599.779+6235.000j;
}

object node:842 {
	name R2-12-47-3_node_29;
	phases "CN";
	nominal_voltage 7199.558;
	voltage_C -3599.779+6235.000j;
}

object node:1205 {
	name R2-12-47-3_node_30;
	phases "ABCN";
	nominal_voltage 7199.558;
	voltage_A 7199.558+0.0j;
	voltage_B -3599.779-6235.000j;
	voltage_C -3599.779+6235.000j;
}

object node:1206 {
	name R2-12-47-3_node_31;
	phases "CN";
	nominal_voltage 7199.558;
	voltage_C -3599.779+6235.000j;
}

object node:843 {
	name R2-12-47-3_node_32;
	phases "CN";
	nominal_voltage 7199.558;
	voltage_C -3599.779+6235.000j;
}

object node:1207 {
	name R2-12-47-3_node_33;
	phases "AN";
	nominal_voltage 7199.558;
	voltage_A 7199.558+0.0j;
}

object node:844 {
	name R2-12-47-3_node_34;
	phases "AN";
	nominal_voltage 7199.558;
	voltage_A 7199.558+0.0j;
}

object node:1208 {
	name R2-12-47-3_node_35;
	phases "ABN";
	nominal_voltage 7199.558;
	voltage_A 7199.558+0.0j;
	voltage_B -3599.779-6235.000j;
}

object node:1210 {
	name R2-12-47-3_node_36;
	phases "BN";
	nominal_voltage 7199.558;
	voltage_B -3599.779-6235.000j;
}

object node:1209 {
	name R2-12-47-3_node_37;
	phases "ABCN";
	nominal_voltage 7199.558;
	voltage_A 7199.558+0.0j;
	voltage_B -3599.779-6235.000j;
	voltage_C -3599.779+6235.000j;
}

object node:1211 {
	name R2-12-47-3_node_38;
	phases "ABCN";
	nominal_voltage 7199.558;
	voltage_A 7199.558+0.0j;
	voltage_B -3599.779-6235.000j;
	voltage_C -3599.779+6235.000j;
}

object node:845 {
	name R2-12-47-3_node_39;
	phases "BN";
	nominal_voltage 7199.558;
	voltage_B -3599.779-6235.000j;
}

object node:1212 {
	name R2-12-47-3_node_40;
	phases "ABCN";
	nominal_voltage 7199.558;
	voltage_A 7199.558+0.0j;
	voltage_B -3599.779-6235.000j;
	voltage_C -3599.779+6235.000j;
}

object node:847 {
	name R2-12-47-3_node_41;
	phases "ABCN";
	nominal_voltage 7199.558;
	voltage_A 7199.558+0.0j;
	voltage_B -3599.779-6235.000j;
	voltage_C -3599.779+6235.000j;
}

object node:848 {
	name R2-12-47-3_node_42;
	phases "ABCN";
	nominal_voltage 7199.558;
	voltage_A 7199.558+0.0j;
	voltage_B -3599.779-6235.000j;
	voltage_C -3599.779+6235.000j;
}

object node:851 {
	name R2-12-47-3_node_43;
	phases "ABCN";
	nominal_voltage 7199.558;
	voltage_A 7199.558+0.0j;
	voltage_B -3599.779-6235.000j;
	voltage_C -3599.779+6235.000j;
}

object node:1216 {
	name R2-12-47-3_node_44;
	phases "AN";
	nominal_voltage 7199.558;
	voltage_A 7199.558+0.0j;
}

object node:852 {
	name R2-12-47-3_node_45;
	phases "CN";
	nominal_voltage 7199.558;
	voltage_C -3599.779+6235.000j;
}

object node:1217 {
	name R2-12-47-3_node_46;
	phases "CN";
	nominal_voltage 7199.558;
	voltage_C -3599.779+6235.000j;
}

object node:1218 {
	name R2-12-47-3_node_47;
	phases "CN";
	nominal_voltage 7199.558;
	voltage_C -3599.779+6235.000j;
}

object node:853 {
	name R2-12-47-3_node_48;
	phases "AN";
	nominal_voltage 7199.558;
	voltage_A 7199.558+0.0j;
}

object node:1220 {
	name R2-12-47-3_node_49;
	phases "AN";
	nominal_voltage 7199.558;
	voltage_A 7199.558+0.0j;
}

object node:1221 {
	name R2-12-47-3_node_50;
	phases "CN";
	nominal_voltage 7199.558;
	voltage_C -3599.779+6235.000j;
}

object node:854 {
	name R2-12-47-3_node_51;
	phases "CN";
	nominal_voltage 7199.558;
	voltage_C -3599.779+6235.000j;
}

object node:856 {
	name R2-12-47-3_node_52;
	phases "CN";
	nominal_voltage 7199.558;
	voltage_C -3599.779+6235.000j;
}

object node:857 {
	name R2-12-47-3_node_53;
	phases "ABCN";
	nominal_voltage 7199.558;
	voltage_A 7199.558+0.0j;
	voltage_B -3599.779-6235.000j;
	voltage_C -3599.779+6235.000j;
}

object node:858 {
	name R2-12-47-3_node_54;
	phases "ABCN";
	nominal_voltage 7199.558;
	voltage_A 7199.558+0.0j;
	voltage_B -3599.779-6235.000j;
	voltage_C -3599.779+6235.000j;
}

object node:859 {
	name R2-12-47-3_node_55;
	phases "ABCN";
	nominal_voltage 7199.558;
	voltage_A 7199.558+0.0j;
	voltage_B -3599.779-6235.000j;
	voltage_C -3599.779+6235.000j;
}

object node:860 {
	name R2-12-47-3_node_56;
	phases "ABCN";
	nominal_voltage 7199.558;
	voltage_A 7199.558+0.0j;
	voltage_B -3599.779-6235.000j;
	voltage_C -3599.779+6235.000j;
}

object node:1224 {
	name R2-12-47-3_node_57;
	phases "BN";
	nominal_voltage 7199.558;
	voltage_B -3599.779-6235.000j;
}

object node:1225 {
	name R2-12-47-3_node_58;
	phases "ABCN";
	nominal_voltage 7199.558;
	voltage_A 7199.558+0.0j;
	voltage_B -3599.779-6235.000j;
	voltage_C -3599.779+6235.000j;
}

object node:1226 {
	name R2-12-47-3_node_59;
	phases "CN";
	nominal_voltage 7199.558;
	voltage_C -3599.779+6235.000j;
}

object node:1227 {
	name R2-12-47-3_node_60;
	phases "ABCN";
	nominal_voltage 7199.558;
	voltage_A 7199.558+0.0j;
	voltage_B -3599.779-6235.000j;
	voltage_C -3599.779+6235.000j;
}

object node:861 {
	name R2-12-47-3_node_61;
	phases "CN";
	nominal_voltage 7199.558;
	voltage_C -3599.779+6235.000j;
}

object node:1228 {
	name R2-12-47-3_node_62;
	phases "AN";
	nominal_voltage 7199.558;
	voltage_A 7199.558+0.0j;
}

object node:1230 {
	name R2-12-47-3_node_63;
	phases "AN";
	nominal_voltage 7199.558;
	voltage_A 7199.558+0.0j;
}

object node:862 {
	name R2-12-47-3_node_64;
	phases "BCN";
	nominal_voltage 7199.558;
	voltage_B -3599.779-6235.000j;
	voltage_C -3599.779+6235.000j;
}

object node:1231 {
	name R2-12-47-3_node_65;
	phases "ABCN";
	nominal_voltage 7199.558;
	voltage_A 7199.558+0.0j;
	voltage_B -3599.779-6235.000j;
	voltage_C -3599.779+6235.000j;
}

object node:863 {
	name R2-12-47-3_node_66;
	phases "ABCN";
	nominal_voltage 7199.558;
	voltage_A 7199.558+0.0j;
	voltage_B -3599.779-6235.000j;
	voltage_C -3599.779+6235.000j;
}

object node:864 {
	name R2-12-47-3_node_67;
	phases "AN";
	nominal_voltage 7199.558;