//*********************************************
// $Id: R2-25.00-1.glm 1132 2008-11-18 22:36:10Z dchassin $ 
//*********************************************

clock { 
	 timestamp '2000-01-01 0:00:00';
	 timezone CST+6CDT;
}

//*********************************************
// modules
module powerflow;


object triplex_line_conductor: {
	name 1/0 AA triplex;
	resistance 0.97;
	geometric_mean_radius 0.0111;
}

object triplex_line_configuration:1 {
	conductor_1 1/0 AA triplex;
	conductor_2 1/0 AA triplex;
	conductor_N 1/0 AA triplex;
	insulation_thickness 0.08;
	diameter 0.368;
}

object transformer:157  {
	phases "AS";
	from 124280202;
	to 124280202_RA_M;
	configuration transformer_configuration:51;
}

object triplex_meter:158 {
	name 124280202_RA_M;
	phases "AS";
	nominal_voltage 120;
	voltage_1 120;
	voltage_2 120;
	voltage_N 0;
}

object triplex_node:159 {
	name 124280202_RA_TX;
	parent 124280202_RA_M;
	phases AS;
	nominal_voltage 120;
	latitude 51N21'30.259";
	longitude 118W29'8.275";
	power_1 58.3790572190117+14.1144928451414j;
	voltage_1 120;
	voltage_2 120;
	voltage_N 0;
}

object transformer:160  {
	phases "AS";
	from 124280226;
	to 124280226_RA_M;
	configuration transformer_configuration:52;
}

object triplex_meter:161 {
	name 124280226_RA_M;
	phases "AS";
	nominal_voltage 120;
	voltage_1 120;
	voltage_2 120;
	voltage_N 0;
}

object triplex_node:162 {
	name 124280226_RA_TX;
	parent 124280226_RA_M;
	phases AS;
	nominal_voltage 120;
	latitude 51N21'31.612";
	longitude 118W25'59.943";
	power_1 6.22708386894599+1.50554213961699j;
	voltage_1 120;
	voltage_2 120;
	voltage_N 0;
}

object transformer:163  {
	phases "BS";
	from 124280226;
	to 124280226_RB_M;
	configuration transformer_configuration:80;
}

object triplex_meter:164 {
	name 124280226_RB_M;
	phases "BS";
	nominal_voltage 120;
	voltage_1 -60.000-103.923j;
	voltage_2 -60.000-103.923j;
	voltage_N 0;
}

object triplex_node:165 {
	name 124280226_RB_TX;
	parent 124280226_RB_M;
	phases BS;
	nominal_voltage 120;
	latitude 51N21'31.612";
	longitude 118W25'59.943";
	power_1 5.76798291707321+1.74300470813216j;
	voltage_1 -60.000-103.923j;
	voltage_2 -60.000-103.923j;
	voltage_N 0;
}

object transformer:166  {
	phases "CS";
	from 124280226;
	to 124280226_RC_M;
	configuration transformer_configuration:106;
}

object triplex_meter:167 {
	name 124280226_RC_M;
	phases "CS";
	nominal_voltage 120;
	voltage_1 -60.000+103.923j;
	voltage_2 -60.000+103.923j;
	voltage_N 0;
}

object triplex_node:168 {
	name 124280226_RC_TX;
	parent 124280226_RC_M;
	phases CS;
	nominal_voltage 120;
	latitude 51N21'31.612";
	longitude 118W25'59.943";
	power_1 5.96509390606729+1.45126340092021j;
	voltage_1 -60.000+103.923j;
	voltage_2 -60.000+103.923j;
	voltage_N 0;
}

object transformer:169  {
	phases "A|B|C|N";
	from 124280250;
	to 124280250_C_M;
	configuration transformer_configuration:134;
}

object meter:170 {
	name 124280250_C_M;
	phases "ABCN";
	nominal_voltage 14376.022;
	voltage_A 14376.022+0.0j;
	voltage_B -7188.011-12450.000j;
	voltage_C -7188.011+12450.000j;
}
object transformer:171  {
	phases "A|B|C|N";
	from 124280250;
	to 124280250_C_M;
	configuration transformer_configuration:135;
}

object meter:172 {
	name 124280250_C_M;
	phases "ABCN";
	nominal_voltage 14376.022;
	voltage_A 14376.022+0.0j;
	voltage_B -7188.011-12450.000j;
	voltage_C -7188.011+12450.000j;
}
object transformer:173  {
	phases "A|B|C|N";
	from 124280258;
	to 124280258_C_M;
	configuration transformer_configuration:136;
}

object meter:174 {
	name 124280258_C_M;
	phases "ABCN";
	nominal_voltage 14376.022;
	voltage_A 14376.022+0.0j;
	voltage_B -7188.011-12450.000j;
	voltage_C -7188.011+12450.000j;
}
object transformer:175  {
	phases "A|B|C|N";
	from 124280258;
	to 124280258_C_M;
	configuration transformer_configuration:135;
}

object meter:176 {
	name 124280258_C_M;
	phases "ABCN";
	nominal_voltage 14376.022;
	voltage_A 14376.022+0.0j;
	voltage_B -7188.011-12450.000j;
	voltage_C -7188.011+12450.000j;
}
object transformer:177  {
	phases "AS";
	from 124280266;
	to 124280266_RA_M;
	configuration transformer_configuration:56;
}

object triplex_meter:178 {
	name 124280266_RA_M;
	phases "AS";
	nominal_voltage 120;
	voltage_1 120;
	voltage_2 120;
	voltage_N 0;
}

object triplex_node:179 {
	name 124280266_RA_TX;
	parent 124280266_RA_M;
	phases AS;
	nominal_voltage 120;
	latitude 51N21'55.043";
	longitude 118W29'27.529";
	power_1 93.4064915504188+22.5831885522262j;
	voltage_1 120;
	voltage_2 120;
	voltage_N 0;
}

object transformer:180  {
	phases "AS";
	from 124359939;
	to 124359939_RA_M;
	configuration transformer_configuration:57;
}

object triplex_meter:181 {
	name 124359939_RA_M;
	phases "AS";
	nominal_voltage 120;
	voltage_1 120;
	voltage_2 120;
	voltage_N 0;
}

object triplex_node:182 {
	name 124359939_RA_TX;
	parent 124359939_RA_M;
	phases AS;
	nominal_voltage 120;
	latitude 51N21'17.495";
	longitude 118W28'57.375";
	power_1 3.89193559115926+0.940965813289616j;
	voltage_1 120;
	voltage_2 120;
	voltage_N 0;
}

object transformer:183  {
	phases "BS";
	from 124359939;
	to 124359939_RB_M;
	configuration transformer_configuration:84;
}

object triplex_meter:184 {
	name 124359939_RB_M;
	phases "BS";
	nominal_voltage 120;
	voltage_1 -60.000-103.923j;
	voltage_2 -60.000-103.923j;
	voltage_N 0;
}

object triplex_node:185 {
	name 124359939_RB_TX;
	parent 124359939_RB_M;
	phases BS;
	nominal_voltage 120;
	latitude 51N21'17.495";
	longitude 118W28'57.375";
	power_1 3.60499689366726+1.089380230282j;
	voltage_1 -60.000-103.923j;
	voltage_2 -60.000-103.923j;
	voltage_N 0;
}

object transformer:186  {
	phases "CS";
	from 124359939;
	to 124359939_RC_M;
	configuration transformer_configuration:111;
}

object triplex_meter:187 {
	name 124359939_RC_M;
	phases "CS";
	nominal_voltage 120;
	voltage_1 -60.000+103.923j;
	voltage_2 -60.000+103.923j;
	voltage_N 0;
}

object triplex_node:188 {
	name 124359939_RC_TX;
	parent 124359939_RC_M;
	phases CS;
	nominal_voltage 120;
	latitude 51N21'17.495";
	longitude 118W28'57.375";
	power_1 3.72819152049738+0.907041530363107j;
	voltage_1 -60.000+103.923j;
	voltage_2 -60.000+103.923j;
	voltage_N 0;
}

object transformer:189  {
	phases "A|B|C|N";
	from 124359979;
	to 124359979_C_M;
	configuration transformer_configuration:137;
}

object meter:190 {
	name 124359979_C_M;
	phases "ABCN";
	nominal_voltage 14376.022;
	voltage_A 14376.022+0.0j;
	voltage_B -7188.011-12450.000j;
	voltage_C -7188.011+12450.000j;
}
object transformer:191  {
	phases "AS";
	from 124359995;
	to 124359995_RA_M;
	configuration transformer_configuration:59;
}

object triplex_meter:192 {
	name 124359995_RA_M;
	phases "AS";
	nominal_voltage 120;
	voltage_1 120;
	voltage_2 120;
	voltage_N 0;
}

object triplex_node:193 {
	name 124359995_RA_TX;
	parent 124359995_RA_M;
	phases AS;
	nominal_voltage 120;
	latitude 51N21'41.773";
	longitude 118W29'23.640";
	power_1 11.6758114438023+2.82289856902828j;
	voltage_1 120;
	voltage_2 120;
	voltage_N 0;
}

object transformer:194  {
	phases "A|B|C|N";
	from 124360003;
	to 124360003_C_M;
	configuration transformer_configuration:138;
}

object meter:195 {
	name 124360003_C_M;
	phases "ABCN";
	nominal_voltage 14376.022;
	voltage_A 14376.022+0.0j;
	voltage_B -7188.011-12450.000j;
	voltage_C -7188.011+12450.000j;
}
object transformer:196  {
	phases "BS";
	from 124360027;
	to 124360027_RB_M;
	configuration transformer_configuration:87;
}

object triplex_meter:197 {
	name 124360027_RB_M;
	phases "BS";
	nominal_voltage 120;
	voltage_1 -60.000-103.923j;
	voltage_2 -60.000-103.923j;
	voltage_N 0;
}

object triplex_node:198 {
	name 124360027_RB_TX;
	parent 124360027_RB_M;
	phases BS;
	nominal_voltage 120;
	latitude 51N21'37.684";
	longitude 118W27'59.493";
	power_1 75.7049650489985+22.8769939867195j;
	voltage_1 -60.000-103.923j;
	voltage_2 -60.000-103.923j;
	voltage_N 0;
}

object transformer:199  {
	phases "A|B|C|N";
	from 124360035;
	to 124360035_C_M;
	configuration transformer_configuration:139;
}

object meter:200 {
	name 124360035_C_M;
	phases "ABCN";
	nominal_voltage 14376.022;
	voltage_A 14376.022+0.0j;
	voltage_B -7188.011-12450.000j;
	voltage_C -7188.011+12450.000j;
}
object transformer:201  {
	phases "AS";
	from 124360067;
	to 124360067_RA_M;
	configuration transformer_configuration:57;
}

object triplex_meter:202 {
	name 124360067_RA_M;
	phases "AS";
	nominal_voltage 120;
	voltage_1 120;
	voltage_2 120;
	voltage_N 0;
}

object triplex_node:203 {
	name 124360067_RA_TX;
	parent 124360067_RA_M;
	phases AS;
	nominal_voltage 120;
	latitude 51N22'11.412";
	longitude 118W29'13.835";
	power_1 3.89193559115926+0.940965813289616j;
	voltage_1 120;
	voltage_2 120;
	voltage_N 0;
}

object transformer:204  {
	phases "BS";
	from 124360067;
	to 124360067_RB_M;
	configuration transformer_configuration:84;
}

object triplex_meter:205 {
	name 124360067_RB_M;
	phases "BS";
	nominal_voltage 120;
	voltage_1 -60.000-103.923j;
	voltage_2 -60.000-103.923j;
	voltage_N 0;
}

object triplex_node:206 {
	name 124360067_RB_TX;
	parent 124360067_RB_M;
	phases BS;
	nominal_voltage 120;
	latitude 51N22'11.412";
	longitude 118W29'13.835";
	power_1 3.60499689366726+1.089380230282j;
	voltage_1 -60.000-103.923j;
	voltage_2 -60.000-103.923j;
	voltage_N 0;
}

object transformer:207  {
	phases "CS";
	from 124360067;
	to 124360067_RC_M;
	configuration transformer_configuration:111;
}

object triplex_meter:208 {
	name 124360067_RC_M;
	phases "CS";
	nominal_voltage 120;
	voltage_1 -60.000+103.923j;
	voltage_2 -60.000+103.923j;
	voltage_N 0;
}

object triplex_node:209 {
	name 124360067_RC_TX;
	parent 124360067_RC_M;
	phases CS;
	nominal_voltage 120;
	latitude 51N22'11.412";
	longitude 118W29'13.835";
	power_1 3.72819152049738+0.907041530363107j;
	voltage_1 -60.000+103.923j;
	voltage_2 -60.000+103.923j;
	voltage_N 0;
}

object transformer:210  {
	phases "AS";
	from 124360091;
	to 124360091_RA_M;
	configuration transformer_configuration:62;
}

object triplex_meter:211 {
	name 124360091_RA_M;
	phases "AS";
	nominal_voltage 120;
	voltage_1 120;
	voltage_2 120;
	voltage_N 0;
}

object triplex_node:212 {
	name 124360091_RA_TX;
	parent 124360091_RA_M;
	phases AS;
	nominal_voltage 120;
	latitude 51N21'43.364";
	longitude 118W28'37.588";
	power_1 23.3516228876047+5.64579713805655j;
	voltage_1 120;
	voltage_2 120;
	voltage_N 0;
}

object transformer:213  {
	phases "A|B|C|N";
	from 124360123;
	to 124360123_C_M;
	configuration transformer_configuration:141;
}

object meter:214 {
	name 124360123_C_M;
	phases "ABCN";
	nominal_voltage 14376.022;
	voltage_A 14376.022+0.0j;
	voltage_B -7188.011-12450.000j;
	voltage_C -7188.011+12450.000j;
}
object transformer:215  {
	phases "AS";
	from 124360139;
	to 124360139_RA_M;
	configuration transformer_configuration:62;
}

object triplex_meter:216 {
	name 124360139_RA_M;
	phases "AS";
	nominal_voltage 120;
	voltage_1 120;
	voltage_2 120;
	voltage_N 0;
}

object triplex_node:217 {
	name 124360139_RA_TX;
	parent 124360139_RA_M;
	phases AS;
	nominal_voltage 120;
	latitude 51N21'19.281";
	longitude 118W29'10.936";
	power_1 23.3516228876047+5.64579713805655j;
	voltage_1 120;
	voltage_2 120;
	voltage_N 0;
}

object transformer:218  {
	phases "A|B|C|N";
	from 124360147;
	to 124360147_C_M;
	configuration transformer_configuration:142;
}

object meter:219 {
	name 124360147_C_M;
	phases "ABCN";
	nominal_voltage 14376.022;
	voltage_A 14376.022+0.0j;
	voltage_B -7188.011-12450.000j;
	voltage_C -7188.011+12450.000j;
}
object transformer:220  {
	phases "A|B|C|N";
	from 124360147;
	to 124360147_C_M;
	configuration transformer_configuration:143;
}

object meter:221 {
	name 124360147_C_M;
	phases "ABCN";
	nominal_voltage 14376.022;
	voltage_A 14376.022+0.0j;
	voltage_B -7188.011-12450.000j;
	voltage_C -7188.011+12450.000j;
}
object transformer:222  {
	phases "AS";
	from 124360187;
	to 124360187_RA_M;
	configuration transformer_configuration:64;
}

object triplex_meter:223 {
	name 124360187_RA_M;
	phases "AS";
	nominal_voltage 120;
	voltage_1 120;
	voltage_2 120;
	voltage_N 0;
}

object triplex_node:224 {
	name 124360187_RA_TX;
	parent 124360187_RA_M;
	phases AS;
	nominal_voltage 120;
	latitude 51N21'31.860";
	longitude 118W28'32.664";
	power_1 81.7306801066164+19.7602899831979j;
	voltage_1 120;
	voltage_2 120;
	voltage_N 0;
}

object transformer:225  {
	phases "AS";
	from 124360347;
	to 124360347_RA_M;
	configuration transformer_configuration:59;
}

object triplex_meter:226 {
	name 124360347_RA_M;
	phases "AS";
	nominal_voltage 120;
	voltage_1 120;
	voltage_2 120;
	voltage_N 0;
}

object triplex_node:227 {
	name 124360347_RA_TX;
	parent 124360347_RA_M;
	phases AS;
	nominal_voltage 120;
	latitude 51N22'6.961";
	longitude 118W29'28.165";
	power_1 11.6758114438023+2.82289856902828j;
	voltage_1 120;
	voltage_2 120;
	voltage_N 0;
}

object transformer:228  {
	phases "AS";
	from 124360227;
	to 124360227_RA_M;
	configuration transformer_configuration:65;
}

object triplex_meter:229 {
	name 124360227_RA_M;
	phases "AS";
	nominal_voltage 120;
	voltage_1 120;
	voltage_2 120;
	voltage_N 0;
}

object triplex_node:230 {
	name 124360227_RA_TX;
	parent 124360227_RA_M;
	phases AS;
	nominal_voltage 120;
	latitude 51N22'18.919";
	longitude 118W28'58.263";
	power_1 244+183j;
	voltage_1 120;
	voltage_2 120;
	voltage_N 0;
}

object transformer:231  {
	phases "BS";
	from 124360227;
	to 124360227_RB_M;
	configuration transformer_configuration:91;
}

object triplex_meter:232 {
	name 124360227_RB_M;
	phases "BS";
	nominal_voltage 120;
	voltage_1 -60.000-103.923j;
	voltage_2 -60.000-103.923j;
	voltage_N 0;
}

object triplex_node:233 {
	name 124360227_RB_TX;
	parent 124360227_RB_M;
	phases BS;
	nominal_voltage 120;
	latitude 51N22'18.919";
	longitude 118W28'58.263";
	power_1 244+183j;
	voltage_1 -60.000-103.923j;
	voltage_2 -60.000-103.923j;
	voltage_N 0;
}

object transformer:234  {
	phases "CS";
	from 124360227;
	to 124360227_RC_M;
	configuration transformer_configuration:119;
}

object triplex_meter:235 {
	name 124360227_RC_M;
	phases "CS";
	nominal_voltage 120;
	voltage_1 -60.000+103.923j;
	voltage_2 -60.000+103.923j;
	voltage_N 0;
}

object triplex_node:236 {
	name 124360227_RC_TX;
	parent 124360227_RC_M;
	phases CS;
	nominal_voltage 120;
	latitude 51N22'18.919";
	longitude 118W28'58.263";
	power_1 244+183j;
	voltage_1 -60.000+103.923j;
	voltage_2 -60.000+103.923j;
	voltage_N 0;
}

object transformer:237  {
	phases "AS";
	from 124360243;
	to 124360243_RA_M;
	configuration transformer_configuration:61;
}

object triplex_meter:238 {
	name 124360243_RA_M;
	phases "AS";
	nominal_voltage 120;
	voltage_1 120;
	voltage_2 120;
	voltage_N 0;
}

object triplex_node:239 {
	name 124360243_RA_TX;
	parent 124360243_RA_M;
	phases AS;
	nominal_voltage 120;
	latitude 51N21'17.247";
	longitude 118W26'26.917";
	power_1 11.6758114438023+2.82289856902828j;
	voltage_1 120;
	voltage_2 120;
	voltage_N 0;
}

object transformer:240  {
	phases "BS";
	from 124360243;
	to 124360243_RB_M;
	configuration transformer_configuration:88;
}

object triplex_meter:241 {
	name 124360243_RB_M;
	phases "BS";
	nominal_voltage 120;
	voltage_1 -60.000-103.923j;
	voltage_2 -60.000-103.923j;
	voltage_N 0;
}

object triplex_node:242 {
	name 124360243_RB_TX;
	parent 124360243_RB_M;
	phases BS;
	nominal_voltage 120;
	latitude 51N21'17.247";
	longitude 118W26'26.917";
	power_1 10.8149950069998+3.26814199810279j;
	voltage_1 -60.000-103.923j;
	voltage_2 -60.000-103.923j;
	voltage_N 0;
}

object transformer:243  {
	phases "CS";
	from 124360243;
	to 124360243_RC_M;
	configuration transformer_configuration:115;
}

object triplex_meter:244 {
	name 124360243_RC_M;
	phases "CS";
	nominal_voltage 120;
	voltage_1 -60.000+103.923j;
	voltage_2 -60.000+103.923j;
	voltage_N 0;
}

object triplex_node:245 {
	name 124360243_RC_TX;
	parent 124360243_RC_M;
	phases CS;
	nominal_voltage 120;
	latitude 51N21'17.247";
	longitude 118W26'26.917";
	power_1 11.1845790353238+2.72112567953959j;
	voltage_1 -60.000+103.923j;
	voltage_2 -60.000+103.923j;
	voltage_N 0;
}

object transformer:246  {
	phases "BS";
	from 124360251;
	to 124360251_RB_M;
	configuration transformer_configuration:86;
}

object triplex_meter:247 {
	name 124360251_RB_M;
	phases "BS";
	nominal_voltage 120;
	voltage_1 -60.000-103.923j;
	voltage_2 -60.000-103.923j;
	voltage_N 0;
}

object triplex_node:248 {
	name 124360251_RB_TX;
	parent 124360251_RB_M;
	phases BS;
	nominal_voltage 120;
	latitude 51N21'17.825";
	longitude 118W26'33.587";
	power_1 21.6299900139996+6.53628399620557j;
	voltage_1 -60.000-103.923j;
	voltage_2 -60.000-103.923j;
	voltage_N 0;
}

object transformer:249  {
	phases "AS";
	from 124360291;
	to 124360291_RA_M;
	configuration transformer_configuration:66;
}

object triplex_meter:250 {
	name 124360291_RA_M;
	phases "AS";
	nominal_voltage 120;
	voltage_1 120;
	voltage_2 120;
	voltage_N 0;
}

object triplex_node:251 {
	name 124360291_RA_TX;
	parent 124360291_RA_M;
	phases AS;
	nominal_voltage 120;
	latitude 51N21'55.374";
	longitude 118W29'27.692";
	power_1 46.7032457752094+11.2915942761131j;
	voltage_1 120;
	voltage_2 120;
	voltage_N 0;
}

object transformer:252  {
	phases "AS";
	from 124360299;
	to 124360299_RA_M;
	configuration transformer_configuration:61;
}

object triplex_meter:253 {
	name 124360299_RA_M;
	phases "AS";
	nominal_voltage 120;
	voltage_1 120;
	voltage_2 120;
	voltage_N 0;
}

object triplex_node:254 {
	name 124360299_RA_TX;
	parent 124360299_RA_M;
	phases AS;
	nominal_voltage 120;
	latitude 51N22'11.422";
	longitude 118W29'23.743";
	power_1 7.78388986361682+1.88193614321694j;
	voltage_1 120;
	voltage_2 120;
	voltage_N 0;
}

object transformer:255  {
	phases "BS";
	from 124360299;
	to 124360299_RB_M;
	configuration transformer_configuration:88;
}

object triplex_meter:256 {
	name 124360299_RB_M;
	phases "BS";
	nominal_voltage 120;
	voltage_1 -60.000-103.923j;
	voltage_2 -60.000-103.923j;
	voltage_N 0;
}

object triplex_node:257 {
	name 124360299_RB_TX;
	parent 124360299_RB_M;
	phases BS;
	nominal_voltage 120;
	latitude 51N22'11.422";
	longitude 118W29'23.743";
	power_1 7.21001109132653+2.17876568959119j;
	voltage_1 -60.000-103.923j;
	voltage_2 -60.000-103.923j;
	voltage_N 0;
}

object transformer:258  {
	phases "CS";
	from 124360299;
	to 124360299_RC_M;
	configuration transformer_configuration:115;
}

object triplex_meter:259 {
	name 124360299_RC_M;
	phases "CS";
	nominal_voltage 120;
	voltage_1 -60.000+103.923j;
	voltage_2 -60.000+103.923j;
	voltage_N 0;
}

object triplex_node:260 {
	name 124360299_RC_TX;
	parent 124360299_RC_M;
	phases CS;
	nominal_voltage 120;
	latitude 51N22'11.422";
	longitude 118W29'23.743";
	power_1 7.45640093632122+1.8140874145273j;
	voltage_1 -60.000+103.923j;
	voltage_2 -60.000+103.923j;
	voltage_N 0;
}

object transformer:261  {
	phases "A|B|C|N";
	from 124360307;
	to 124360307_C_M;
	configuration transformer_configuration:144;
}

object meter:262 {
	name 124360307_C_M;
	phases "ABCN";
	nominal_voltage 14376.022;
	voltage_A 14376.022+0.0j;
	voltage_B -7188.011-12450.000j;
	voltage_C -7188.011+12450.000j;
}
object transformer:263  {
	phases "AS";
	from 124360323;
	to 124360323_RA_M;
	configuration transformer_configuration:57;
}

object triplex_meter:264 {
	name 124360323_RA_M;
	phases "AS";
	nominal_voltage 120;
	voltage_1 120;
	voltage_2 120;
	voltage_N 0;
}

object triplex_node:265 {
	name 124360323_RA_TX;
	parent 124360323_RA_M;
	phases AS;
	nominal_voltage 120;
	latitude 51N21'26.582";
	longitude 118W26'19.848";
	power_1 3.89193559115926+0.940965813289616j;
	voltage_1 120;
	voltage_2 120;
	voltage_N 0;
}

object transformer:266  {
	phases "BS";
	from 124360323;
	to 124360323_RB_M;
	configuration transformer_configuration:84;
}

object triplex_meter:267 {
	name 124360323_RB_M;
	phases "BS";
	nominal_voltage 120;
	voltage_1 -60.000-103.923j;
	voltage_2 -60.000-103.923j;
	voltage_N 0;
}

object triplex_node:268 {
	name 124360323_RB_TX;
	parent 124360323_RB_M;
	phases BS;
	nominal_voltage 120;
	latitude 51N21'26.582";
	longitude 118W26'19.848";
	power_1 3.60499689366726+1.089380230282j;
	voltage_1 -60.000-103.923j;
	voltage_2 -60.000-103.923j;
	voltage_N 0;
}

object transformer:269  {
	phases "CS";
	from 124360323;
	to 124360323_RC_M;
	configuration transformer_configuration:111;
}

object triplex_meter:270 {
	name 124360323_RC_M;
	phases "CS";
	nominal_voltage 120;
	voltage_1 -60.000+103.923j;
	voltage_2 -60.000+103.923j;
	voltage_N 0;
}

object triplex_node:271 {
	name 124360323_RC_TX;
	parent 124360323_RC_M;
	phases CS;
	nominal_voltage 120;
	latitude 51N21'26.582";
	longitude 118W26'19.848";
	power_1 3.72819152049738+0.907041530363107j;
	voltage_1 -60.000+103.923j;
	voltage_2 -60.000+103.923j;
	voltage_N 0;
}

object transformer:272  {
	phases "BS";
	from 124360339;
	to 124360339_RB_M;
	configuration transformer_configuration:87;
}

object triplex_meter:273 {
	name 124360339_RB_M;
	phases "BS";
	nominal_voltage 120;
	voltage_1 -60.000-103.923j;
	voltage_2 -60.000-103.923j;
	voltage_N 0;
}

object triplex_node:274 {
	name 124360339_RB_TX;
	parent 124360339_RB_M;
	phases BS;
	nominal_voltage 120;
	latitude 51N21'39.904";
	longitude 118W27'50.753";
	power_1 75.7049650489985+22.8769939867195j;
	voltage_1 -60.000-103.923j;
	voltage_2 -60.000-103.923j;
	voltage_N 0;
}

object transformer:275  {
	phases "AS";
	from 124361323;
	to 124361323_RA_M;
	configuration transformer_configuration:62;
}

object triplex_meter:276 {
	name 124361323_RA_M;
	phases "AS";
	nominal_voltage 120;
	voltage_1 120;
	voltage_2 120;
	voltage_N 0;
}

object triplex_node:277 {
	name 124361323_RA_TX;
	parent 124361323_RA_M;
	phases AS;
	nominal_voltage 120;
	latitude 51N22'11.412";
	longitude 118W29'28.564";
	power_1 23.3516228876047+5.64579713805655j;
	voltage_1 120;
	voltage_2 120;
	voltage_N 0;
}

object transformer:278  {
	phases "AS";
	from 124360363;
	to 124360363_RA_M;
	configuration transformer_configuration:68;
}

object triplex_meter:279 {
	name 124360363_RA_M;
	phases "AS";
	nominal_voltage 120;
	voltage_1 120;
	voltage_2 120;
	voltage_N 0;
}

object triplex_node:280 {
	name 124360363_RA_TX;
	parent 124360363_RA_M;
	phases AS;
	nominal_voltage 120;
	latitude 51N21'35.071";
	longitude 118W28'57.627";
	power_1 1.55677330239879+0.376386099483961j;
	voltage_1 120;
	voltage_2 120;
	voltage_N 0;
}

object transformer:281  {
	phases "BS";
	from 124360363;
	to 124360363_RB_M;
	configuration transformer_configuration:93;
}

object triplex_meter:282 {
	name 124360363_RB_M;
	phases "BS";
	nominal_voltage 120;
	voltage_1 -60.000-103.923j;
	voltage_2 -60.000-103.923j;
	voltage_N 0;
}

object triplex_node:283 {
	name 124360363_RB_TX;
	parent 124360363_RB_M;
	phases BS;
	nominal_voltage 120;
	latitude 51N21'35.071";
	longitude 118W28'57.627";
	power_1 1.4419978922673+0.435751830661438j;
	voltage_1 -60.000-103.923j;
	voltage_2 -60.000-103.923j;
	voltage_N 0;
}

object transformer:284  {
	phases "CS";
	from 124360363;
	to 124360363_RC_M;
	configuration transformer_configuration:122;
}

object triplex_meter:285 {
	name 124360363_RC_M;
	phases "CS";
	nominal_voltage 120;
	voltage_1 -60.000+103.923j;
	voltage_2 -60.000+103.923j;
	voltage_N 0;
}

object triplex_node:286 {
	name 124360363_RC_TX;
	parent 124360363_RC_M;
	phases CS;
	nominal_voltage 120;
	latitude 51N21'35.071";
	longitude 118W28'57.627";
	power_1 1.49127571343263+0.362816394455188j;
	voltage_1 -60.000+103.923j;
	voltage_2 -60.000+103.923j;
	voltage_N 0;
}

object transformer:287  {
	phases "BS";
	from 124360395;
	to 124360395_CB_M;
	configuration transformer_configuration:88;
}

object triplex_meter:288 {
	name 124360395_CB_M;
	phases "BS";
	nominal_voltage 120;
	voltage_1 -60.000-103.923j;
	voltage_2 -60.000-103.923j;
	voltage_N 0;
}

object triplex_node:289 {
	name 124360395_CB_TX;
	parent 124360395_CB_M;
	phases BS;
	nominal_voltage 120;
	latitude 51N21'18.404";
	longitude 118W27'5.767";
	power_1 10.8149950069998+3.26814199810279j;
	voltage_1 -60.000-103.923j;
	voltage_2 -60.000-103.923j;
	voltage_N 0;
}

object transformer:290  {
	phases "AS";
	from 124360411;
	to 124360411_RA_M;
	configuration transformer_configuration:62;
}

object triplex_meter:291 {
	name 124360411_RA_M;
	phases "AS";
	nominal_voltage 120;
	voltage_1 120;
	voltage_2 120;
	voltage_N 0;
}

object triplex_node:292 {
	name 124360411_RA_TX;
	parent 124360411_RA_M;
	phases AS;
	nominal_voltage 120;
	latitude 51N21'40.989";
	longitude 118W27'55.175";
	power_1 23.3516228876047+5.64579713805655j;
	voltage_1 120;
	voltage_2 120;
	voltage_N 0;
}

object transformer:293  {
	phases "BS";
	from 124360435;
	to 124360435_RB_M;
	configuration transformer_configuration:94;
}

object triplex_meter:294 {
	name 124360435_RB_M;
	phases "BS";
	nominal_voltage 120;
	voltage_1 -60.000-103.923j;
	voltage_2 -60.000-103.923j;
	voltage_N 0;
}

object triplex_node:295 {
	name 124360435_RB_TX;
	parent 124360435_RB_M;
	phases BS;
	nominal_voltage 120;
	latitude 51N21'20.490";
	longitude 118W26'31.191";
	power_1 54.0749750349989+16.3407099905139j;
	voltage_1 -60.000-103.923j;
	voltage_2 -60.000-103.923j;
	voltage_N 0;
}

object transformer:296  {
	phases "BS";
	from 124360451;
	to 124360451_RB_M;
	configuration transformer_configuration:94;
}

object triplex_meter:297 {
	name 124360451_RB_M;
	phases "BS";
	nominal_voltage 120;
	voltage_1 -60.000-103.923j;
	voltage_2 -60.000-103.923j;
	voltage_N 0;
}

object triplex_node:298 {
	name 124360451_RB_TX;
	parent 124360451_RB_M;
	phases BS;
	nominal_voltage 120;
	latitude 51N21'41.216";
	longitude 118W28'28.139";
	power_1 54.0749750349989+16.3407099905139j;
	voltage_1 -60.000-103.923j;
	voltage_2 -60.000-103.923j;
	voltage_N 0;
}

object transformer:299  {
	phases "A|B|C|N";
	from 124360459;
	to 124360459_C_M;
	configuration transformer_configuration:146;
}

object meter:300 {
	name 124360459_C_M;
	phases "ABCN";
	nominal_voltage 14376.022;
	voltage_A 14376.022+0.0j;
	voltage_B -7188.011-12450.000j;
	voltage_C -7188.011+12450.000j;
}
object transformer:301  {
	phases "AS";
	from 124360467;
	to 124360467_RA_M;
	configuration transformer_configuration:69;
}

object triplex_meter:302 {
	name 124360467_RA_M;
	phases "AS";
	nominal_voltage 120;
	voltage_1 120;
	voltage_2 120;
	voltage_N 0;
}

object triplex_node:303 {
	name 124360467_RA_TX;
	parent 124360467_RA_M;
	phases AS;
	nominal_voltage 120;
	latitude 51N22'3.326";
	longitude 118W29'29.052";
	power_1 70.0548686628141+16.9373914141697j;
	voltage_1 120;
	voltage_2 120;
	voltage_N 0;
}

object transformer:304  {
	phases "AS";
	from 124361203;
	to 124361203_RA_M;
	configuration transformer_configuration:62;
}

object triplex_meter:305 {
	name 124361203_RA_M;
	phases "AS";
	nominal_voltage 120;
	voltage_1 120;
	voltage_2 120;
	voltage_N 0;
}

object triplex_node:306 {
	name 124361203_RA_TX;
	parent 124361203_RA_M;
	phases AS;
	nominal_voltage 120;
	latitude 51N21'24.620";
	longitude 118W28'0.795";
	power_1 23.3516228876047+5.64579713805655j;
	voltage_1 120;
	voltage_2 120;
	voltage_N 0;
}

object transformer:307  {
	phases "A|B|C|N";
	from 124360507;
	to 124360507_C_M;
	configuration transformer_configuration:147;
}

object meter:308 {
	name 124360507_C_M;
	phases "ABCN";
	nominal_voltage 14376.022;
	voltage_A 14376.022+0.0j;
	voltage_B -7188.011-12450.000j;
	voltage_C -7188.011+12450.000j;
}
object transformer:309  {
	phases "AS";
	from 124360515;
	to 124360515_RA_M;
	configuration transformer_configuration:66;
}

object triplex_meter:310 {
	name 124360515_RA_M;
	phases "AS";
	nominal_voltage 120;
	voltage_1 120;
	voltage_2 120;
	voltage_N 0;
}

object triplex_node:311 {
	name 124360515_RA_TX;
	parent 124360515_RA_M;
	phases AS;
	nominal_voltage 120;
	latitude 51N21'26.355";
	longitude 118W26'39.162";
	power_1 11.3+8.3j;
	voltage_1 120;
	voltage_2 120;
	voltage_N 0;
}

object transformer:312  {
	phases "BS";
	from 124360515;
	to 124360515_RB_M;
	configuration transformer_configuration:96;
}

object triplex_meter:313 {
	name 124360515_RB_M;
	phases "BS";
	nominal_voltage 120;
	voltage_1 -60.000-103.923j;
	voltage_2 -60.000-103.923j;
	voltage_N 0;
}

object triplex_node:314 {
	name 124360515_RB_TX;
	parent 124360515_RB_M;
	phases BS;
	nominal_voltage 120;
	latitude 51N21'26.355";
	longitude 118W26'39.162";
	power_1 11.3+8.3j;
	voltage_1 -60.000-103.923j;
	voltage_2 -60.000-103.923j;
	voltage_N 0;
}

object transformer:315  {
	phases "CS";
	from 124360515;
	to 124360515_RC_M;
	configuration transformer_configuration:120;
}

object triplex_meter:316 {
	name 124360515_RC_M;
	phases "CS";
	nominal_voltage 120;
	voltage_1 -60.000+103.923j;
	voltage_2 -60.000+103.923j;
	voltage_N 0;
}