// $Id: R2-25.00-1.glm 1132 2008-11-18 22:36:10Z dchassin $ 
//*********************************************

clock { 
	 timestamp '2000-01-01 0:00:00';
	 timezone CST+6CDT;
}

//*********************************************
// modules
module powerflow;


object fuse:1387 {
	name R2-25-00-1_fuse_1;
	phases "ABCN";
	from node:1212;
	to node:825;
	current_limit 3000.0;
	status CLOSED;
}

object fuse:1388 {
	name R2-25-00-1_fuse_2;
	phases "ABCN";
	from node:838;
	to node:827;
	current_limit 3000.0;
	status CLOSED;
}

object fuse:1389 {
	name R2-25-00-1_fuse_3;
	phases "ABCN";
	from node:1028;
	to node:829;
	current_limit 3000.0;
	status CLOSED;
}

object fuse:1392 {
	name R2-25-00-1_fuse_4;
	phases "AN";
	from node:1292;
	to node:836;
	current_limit 3000.0;
	status CLOSED;
}

object fuse:1393 {
	name R2-25-00-1_fuse_5;
	phases "BN";
	from node:1136;
	to node:837;
	current_limit 3000.0;
	status CLOSED;
}

object fuse:1396 {
	name R2-25-00-1_fuse_6;
	phases "ABCN";
	from node:1037;
	to node:840;
	current_limit 3000.0;
	status CLOSED;
}

object fuse:1410 {
	name R2-25-00-1_fuse_7;
	phases "AN";
	from node:1204;
	to node:863;
	current_limit 3000.0;
	status CLOSED;
}

object fuse:1417 {
	name R2-25-00-1_fuse_8;
	phases "ABCN";
	from node:1049;
	to node:873;
	current_limit 3000.0;
	status CLOSED;
}

object fuse:1424 {
	name R2-25-00-1_fuse_9;
	phases "CN";
	from node:882;
	to node:1089;
	current_limit 3000.0;
	status CLOSED;
}

object fuse:1425 {
	name R2-25-00-1_fuse_10;
	phases "CN";
	from node:1205;
	to node:883;
	current_limit 3000.0;
	status CLOSED;
}

object fuse:1426 {
	name R2-25-00-1_fuse_11;
	phases "ABCN";
	from node:1222;
	to node:884;
	current_limit 3000.0;
	status CLOSED;
}

object fuse:1428 {
	name R2-25-00-1_fuse_12;
	phases "CN";
	from node:993;
	to node:889;
	current_limit 3000.0;
	status CLOSED;
}

object fuse:1437 {
	name R2-25-00-1_fuse_13;
	phases "ABCN";
	from node:994;
	to node:906;
	current_limit 3000.0;
	status CLOSED;
}

object fuse:1441 {
	name R2-25-00-1_fuse_14;
	phases "BN";
	from node:1106;
	to node:915;
	current_limit 3000.0;
	status CLOSED;
}

object fuse:1442 {
	name R2-25-00-1_fuse_15;
	phases "AN";
	from node:916;
	to node:1126;
	current_limit 3000.0;
	status CLOSED;
}

object fuse:1448 {
	name R2-25-00-1_fuse_16;
	phases "BN";
	from node:877;
	to node:927;
	current_limit 3000.0;
	status CLOSED;
}

object fuse:1453 {
	name R2-25-00-1_fuse_17;
	phases "BN";
	from node:837;
	to node:933;
	current_limit 3000.0;
	status CLOSED;
}

object fuse:1463 {
	name R2-25-00-1_fuse_18;
	phases "ABCN";
	from node:1296;
	to node:952;
	current_limit 3000.0;
	status CLOSED;
}

object fuse:1477 {
	name R2-25-00-1_fuse_19;
	phases "ABCN";
	from node:1004;
	to node:976;
	current_limit 3000.0;
	status CLOSED;
}

object fuse:1479 {
	name R2-25-00-1_fuse_20;
	phases "ABCN";
	from node:1188;
	to node:985;
	current_limit 3000.0;
	status CLOSED;
}

object fuse:1494 {
	name R2-25-00-1_fuse_21;
	phases "ABCN";
	from node:1223;
	to node:1012;
	current_limit 3000.0;
	status CLOSED;
}

object fuse:1495 {
	name R2-25-00-1_fuse_22;
	phases "ABCN";
	from node:1187;
	to node:1015;
	current_limit 3000.0;
	status CLOSED;
}

object fuse:1498 {
	name R2-25-00-1_fuse_23;
	phases "AN";
	from node:1019;
	to node:1039;
	current_limit 3000.0;
	status CLOSED;
}

object fuse:1500 {
	name R2-25-00-1_fuse_24;
	phases "BN";
	from node:1063;
	to node:1023;
	current_limit 3000.0;
	status CLOSED;
}

object fuse:1501 {
	name R2-25-00-1_fuse_25;
	phases "CN";
	from node:859;
	to node:1024;
	current_limit 3000.0;
	status CLOSED;
}

object fuse:1502 {
	name R2-25-00-1_fuse_26;
	phases "BN";
	from node:1164;
	to node:1025;
	current_limit 3000.0;
	status CLOSED;
}

object fuse:1508 {
	name R2-25-00-1_fuse_27;
	phases "CN";
	from node:1244;
	to node:1035;
	current_limit 3000.0;
	status CLOSED;
}

object fuse:1519 {
	name R2-25-00-1_fuse_28;
	phases "CN";
	from node:1195;
	to node:1050;
	current_limit 3000.0;
	status CLOSED;
}

object fuse:1523 {
	name R2-25-00-1_fuse_29;
	phases "ABCN";
	from node:1057;
	to node:1059;
	current_limit 3000.0;
	status CLOSED;
}

object fuse:1524 {
	name R2-25-00-1_fuse_30;
	phases "AN";
	from node:922;
	to node:1061;
	current_limit 3000.0;
	status CLOSED;
}

object fuse:1525 {
	name R2-25-00-1_fuse_31;
	phases "CN";
	from node:965;
	to node:1062;
	current_limit 3000.0;
	status CLOSED;
}

object fuse:1532 {
	name R2-25-00-1_fuse_32;
	phases "CN";
	from node:960;
	to node:1073;
	current_limit 3000.0;
	status CLOSED;
}

object fuse:1535 {
	name R2-25-00-1_fuse_33;
	phases "AN";
	from node:924;
	to node:1078;
	current_limit 3000.0;
	status CLOSED;
}

object fuse:1554 {
	name R2-25-00-1_fuse_34;
	phases "CN";
	from node:960;
	to node:1111;
	current_limit 3000.0;
	status CLOSED;
}

object fuse:1558 {
	name R2-25-00-1_fuse_35;
	phases "CN";
	from node:1009;
	to node:1119;
	current_limit 3000.0;
	status CLOSED;
}

object fuse:1569 {
	name R2-25-00-1_fuse_36;
	phases "AN";
	from node:1084;
	to node:1137;
	current_limit 3000.0;
	status CLOSED;
}

object fuse:1570 {
	name R2-25-00-1_fuse_37;
	phases "ABCN";
	from node:988;
	to node:1142;
	current_limit 3000.0;
	status CLOSED;
}

object fuse:1571 {
	name R2-25-00-1_fuse_38;
	phases "CN";
	from node:908;
	to node:1143;
	current_limit 3000.0;
	status CLOSED;
}

object fuse:1572 {
	name R2-25-00-1_fuse_39;
	phases "CN";
	from node:1329;
	to node:1144;
	current_limit 3000.0;
	status CLOSED;
}

object fuse:1573 {
	name R2-25-00-1_fuse_40;
	phases "BN";
	from node:851;
	to node:1146;
	current_limit 3000.0;
	status CLOSED;
}

object fuse:1578 {
	name R2-25-00-1_fuse_41;
	phases "ABCN";
	from node:1202;
	to node:1155;
	current_limit 3000.0;
	status CLOSED;
}

object fuse:1592 {
	name R2-25-00-1_fuse_42;
	phases "BN";
	from node:909;
	to node:1177;
	current_limit 3000.0;
	status CLOSED;
}

object fuse:1610 {
	name R2-25-00-1_fuse_43;
	phases "CN";
	from node:1152;
	to node:1199;
	current_limit 3000.0;
	status CLOSED;
}

object fuse:1611 {
	name R2-25-00-1_fuse_44;
	phases "ABCN";
	from node:1159;
	to node:1200;
	current_limit 3000.0;
	status CLOSED;
}

object fuse:1617 {
	name R2-25-00-1_fuse_45;
	phases "AN";
	from node:865;
	to node:1206;
	current_limit 3000.0;
	status CLOSED;
}

object fuse:1624 {
	name R2-25-00-1_fuse_46;
	phases "BN";
	from node:954;
	to node:1218;
	current_limit 3000.0;
	status CLOSED;
}

object fuse:1626 {
	name R2-25-00-1_fuse_47;
	phases "BN";
	from node:1179;
	to node:1221;
	current_limit 3000.0;
	status CLOSED;
}

object fuse:1634 {
	name R2-25-00-1_fuse_48;
	phases "AN";
	from node:924;
	to node:1234;
	current_limit 3000.0;
	status CLOSED;
}

object fuse:1639 {
	name R2-25-00-1_fuse_49;
	phases "CN";
	from node:1194;
	to node:1240;
	current_limit 3000.0;
	status CLOSED;
}

object fuse:1647 {
	name R2-25-00-1_fuse_50;
	phases "ABCN";
	from node:1312;
	to node:1253;
	current_limit 3000.0;
	status CLOSED;
}

object fuse:1650 {
	name R2-25-00-1_fuse_51;
	phases "AN";
	from node:1179;
	to node:1264;
	current_limit 3000.0;
	status CLOSED;
}

object fuse:1672 {
	name R2-25-00-1_fuse_52;
	phases "BN";
	from node:1306;
	to node:1030;
	current_limit 3000.0;
	status CLOSED;
}

object fuse:1679 {
	name R2-25-00-1_fuse_53;
	phases "ABCN";
	from node:1129;
	to node:1317;
	current_limit 3000.0;
	status CLOSED;
}

object fuse:1681 {
	name R2-25-00-1_fuse_54;
	phases "CN";
	from node:883;
	to node:1322;
	current_limit 3000.0;
	status CLOSED;
}

object fuse:1684 {
	name R2-25-00-1_fuse_55;
	phases "ABCN";
	from node:1307;
	to node:1326;
	current_limit 3000.0;
	status CLOSED;
}

object fuse:1688 {
	name R2-25-00-1_fuse_56;
	phases "CN";
	from node:874;
	to node:1330;
	current_limit 3000.0;
	status CLOSED;
}

object fuse:1689 {
	name R2-25-00-1_fuse_57;
	phases "BN";
	from node:1214;
	to node:1331;
	current_limit 3000.0;
	status CLOSED;
}

object fuse:1691 {
	name R2-25-00-1_fuse_58;
	phases "AN";
	from node:1007;
	to node:1173;
	current_limit 3000.0;
	status CLOSED;
}


object line_configuration:1343 {
	conductor_A underground_line_conductor:43;
	conductor_N underground_line_conductor:43;
	spacing line_spacing:1342;
}

object line_configuration:1345 {
	conductor_A overhead_line_conductor:29;
	conductor_B overhead_line_conductor:29;
	conductor_C overhead_line_conductor:29;
	conductor_N overhead_line_conductor:29;
	spacing line_spacing:1344;
}

object line_configuration:1346 {
	conductor_A underground_line_conductor:42;
	conductor_N underground_line_conductor:42;
	spacing line_spacing:1342;
}

object line_configuration:1347 {
	conductor_A overhead_line_conductor:29;
	conductor_B overhead_line_conductor:29;
	conductor_C overhead_line_conductor:29;
	conductor_N overhead_line_conductor:29;
	spacing line_spacing:1344;
}

object line_configuration:1349 {
	conductor_A underground_line_conductor:47;
	conductor_B underground_line_conductor:47;
	conductor_C underground_line_conductor:47;
	conductor_N underground_line_conductor:47;
	spacing line_spacing:1348;
}

object line_configuration:1350 {
	conductor_A overhead_line_conductor:11;
	conductor_B overhead_line_conductor:11;
	conductor_C overhead_line_conductor:11;
	conductor_N overhead_line_conductor:11;
	spacing line_spacing:1348;
}

object line_configuration:1352 {
	conductor_B overhead_line_conductor:13;
	conductor_N overhead_line_conductor:13;
	spacing line_spacing:1351;
}

object line_configuration:1354 {
	conductor_C underground_line_conductor:43;
	conductor_N underground_line_conductor:43;
	spacing line_spacing:1353;
}

object line_configuration:1355 {
	conductor_A overhead_line_conductor:13;
	conductor_B overhead_line_conductor:13;
	conductor_C overhead_line_conductor:13;
	conductor_N overhead_line_conductor:13;
	spacing line_spacing:1344;
}

object line_configuration:1357 {
	conductor_B underground_line_conductor:42;
	conductor_N underground_line_conductor:42;
	spacing line_spacing:1356;
}

object line_configuration:1359 {
	conductor_C overhead_line_conductor:13;
	conductor_N overhead_line_conductor:13;
	spacing line_spacing:1358;
}

object line_configuration:1360 {
	conductor_B underground_line_conductor:43;
	conductor_N underground_line_conductor:43;
	spacing line_spacing:1356;
}

object line_configuration:1361 {
	conductor_A underground_line_conductor:43;
	conductor_N underground_line_conductor:43;
	spacing line_spacing:1342;
}

object line_configuration:1362 {
	conductor_A overhead_line_conductor:26;
	conductor_B overhead_line_conductor:26;
	conductor_C overhead_line_conductor:26;
	conductor_N overhead_line_conductor:26;
	spacing line_spacing:1344;
}

object line_configuration:1363 {
	conductor_A overhead_line_conductor:26;
	conductor_B overhead_line_conductor:26;
	conductor_C overhead_line_conductor:26;
	conductor_N overhead_line_conductor:26;
	spacing line_spacing:1344;
}

object line_configuration:1364 {
	conductor_A underground_line_conductor:42;
	conductor_B underground_line_conductor:42;
	conductor_C underground_line_conductor:42;
	conductor_N underground_line_conductor:42;
	spacing line_spacing:1348;
}

object line_configuration:1365 {
	conductor_C underground_line_conductor:42;
	conductor_N underground_line_conductor:42;
	spacing line_spacing:1353;
}

object line_configuration:1366 {
	conductor_C overhead_line_conductor:4;
	conductor_N overhead_line_conductor:4;
	spacing line_spacing:1358;
}

object line_configuration:1367 {
	conductor_C underground_line_conductor:43;
	conductor_N underground_line_conductor:43;
	spacing line_spacing:1353;
}

object line_configuration:1368 {
	conductor_A overhead_line_conductor:19;
	conductor_B overhead_line_conductor:19;
	conductor_C overhead_line_conductor:19;
	conductor_N overhead_line_conductor:19;
	spacing line_spacing:1344;
}

object line_configuration:1369 {
	conductor_A overhead_line_conductor:13;
	conductor_B overhead_line_conductor:13;
	conductor_C overhead_line_conductor:13;
	conductor_N overhead_line_conductor:13;
	spacing line_spacing:1344;
}

object line_configuration:1370 {
	conductor_C overhead_line_conductor:6;
	conductor_N overhead_line_conductor:6;
	spacing line_spacing:1358;
}

object line_configuration:1371 {
	conductor_C overhead_line_conductor:19;
	conductor_N overhead_line_conductor:19;
	spacing line_spacing:1358;
}

object line_configuration:1372 {
	conductor_C overhead_line_conductor:6;
	conductor_N overhead_line_conductor:6;
	spacing line_spacing:1358;
}

object line_configuration:1373 {
	conductor_B overhead_line_conductor:26;
	conductor_N overhead_line_conductor:26;
	spacing line_spacing:1351;
}

object line_configuration:1374 {
	conductor_A overhead_line_conductor:26;
	conductor_B overhead_line_conductor:26;
	conductor_C overhead_line_conductor:26;
	conductor_N overhead_line_conductor:26;
	spacing line_spacing:1344;
}

object line_configuration:1375 {
	conductor_A overhead_line_conductor:11;
	conductor_B overhead_line_conductor:11;
	conductor_C overhead_line_conductor:11;
	conductor_N overhead_line_conductor:11;
	spacing line_spacing:1344;
}

object line_configuration:1376 {
	conductor_B overhead_line_conductor:11;
	conductor_N overhead_line_conductor:11;
	spacing line_spacing:1351;
}

object line_configuration:1377 {
	conductor_B overhead_line_conductor:19;
	conductor_N overhead_line_conductor:19;
	spacing line_spacing:1351;
}

object line_configuration:1378 {
	conductor_C overhead_line_conductor:17;
	conductor_N overhead_line_conductor:17;
	spacing line_spacing:1358;
}

object line_configuration:1379 {
	conductor_A overhead_line_conductor:29;
	conductor_B overhead_line_conductor:29;
	conductor_C overhead_line_conductor:29;
	conductor_N overhead_line_conductor:29;
	spacing line_spacing:1344;
}

object line_configuration:1380 {
	conductor_A overhead_line_conductor:11;
	conductor_B overhead_line_conductor:11;
	conductor_C overhead_line_conductor:11;
	conductor_N overhead_line_conductor:11;
	spacing line_spacing:1344;
}

object line_configuration:1381 {
	conductor_A overhead_line_conductor:39;
	conductor_B overhead_line_conductor:39;
	conductor_C overhead_line_conductor:39;
	conductor_N overhead_line_conductor:39;
	spacing line_spacing:1344;
}


object line_spacing:1342 {
	distance_AN 6.0 in;
}

object line_spacing:1344 {
	distance_AB 59.0 in;
	distance_BC 59.0 in;
	distance_AC 59.0 in;
	distance_AN 59.0 in;
	distance_BN 59.0 in;
	distance_CN 59.0 in;
}

object line_spacing:1348 {
	distance_AB 6.0 in;
	distance_BC 6.0 in;
	distance_AC 6.0 in;
	distance_AN 6.0 in;
	distance_BN 6.0 in;
	distance_CN 6.0 in;
}

object line_spacing:1351 {
	distance_BN 53.0 in;
}

object line_spacing:1353 {
	distance_CN 6.0 in;
}

object line_spacing:1356 {
	distance_BN 6.0 in;
}

object line_spacing:1358 {
	distance_CN 53.0 in;
}


object load {
	name R2-25-00-1_load_1;
	parent R2-25-00-1_meter_1;
	phases "ABCN";
	nominal_voltage 14376.022;
	voltage_A 14376.022+0.0j;
	voltage_B -7188.011-12450.000j;
	voltage_C -7188.011+12450.000j;
	constant_power_A 46703.246+11291.594j;
	constant_power_B 43259.980+13072.568j;
	constant_power_C 44738.316+10884.503j;
	load_class "C";
}

object load {
	name R2-25-00-1_load_2;
	parent R2-25-00-1_meter_2;
	phases "ABCN";
	nominal_voltage 14376.022;
	voltage_A 14376.022+0.0j;
	voltage_B -7188.011-12450.000j;
	voltage_C -7188.011+12450.000j;
	constant_power_A 46703.246+11291.594j;
	constant_power_B 43259.980+13072.568j;
	constant_power_C 44738.316+10884.503j;
	load_class "C";
}

object load {
	name R2-25-00-1_load_3;
	parent R2-25-00-1_meter_3;
	phases "ABCN";
	nominal_voltage 14376.022;
	voltage_A 14376.022+0.0j;
	voltage_B -7188.011-12450.000j;
	voltage_C -7188.011+12450.000j;
	constant_power_A 25686.785+6210.377j;
	constant_power_B 23792.989+7189.912j;
	constant_power_C 24606.074+5986.476j;
	load_class "C";
}

object load {
	name R2-25-00-1_load_4;
	parent R2-25-00-1_meter_4;
	phases "ABCN";
	nominal_voltage 14376.022;
	voltage_A 14376.022+0.0j;
	voltage_B -7188.011-12450.000j;
	voltage_C -7188.011+12450.000j;
	constant_power_A 23351.623+5645.797j;
	constant_power_B 21629.990+6536.284j;
	constant_power_C 22369.158+5442.251j;
	load_class "C";
}

object load {
	name R2-25-00-1_load_5;
	parent R2-25-00-1_meter_5;
	phases "ABCN";
	nominal_voltage 14376.022;
	voltage_A 14376.022+0.0j;
	voltage_B -7188.011-12450.000j;
	voltage_C -7188.011+12450.000j;
	constant_power_A 11675.811+2822.899j;
	constant_power_B 10814.995+3268.142j;
	constant_power_C 11184.579+2721.126j;
	load_class "C";
}

object load {
	name R2-25-00-1_load_6;
	parent R2-25-00-1_meter_6;
	phases "ABCN";
	nominal_voltage 14376.022;
	voltage_A 14376.022+0.0j;
	voltage_B -7188.011-12450.000j;
	voltage_C -7188.011+12450.000j;
	constant_power_A 70000.000+52700.000j;
	constant_power_B 70000.000+52700.000j;
	constant_power_C 70000.000+52700.000j;
	load_class "C";
}

object load {
	name R2-25-00-1_load_7;
	parent R2-25-00-1_meter_7;
	phases "ABCN";
	nominal_voltage 14376.022;
	voltage_A 14376.022+0.0j;
	voltage_B -7188.011-12450.000j;
	voltage_C -7188.011+12450.000j;
	constant_power_A 11675.811+2822.899j;
	constant_power_B 10814.995+3268.142j;
	constant_power_C 11184.579+2721.126j;
	load_class "C";
}

object load {
	name R2-25-00-1_load_8;
	parent R2-25-00-1_meter_8;
	phases "ABCN";
	nominal_voltage 14376.022;
	voltage_A 14376.022+0.0j;
	voltage_B -7188.011-12450.000j;
	voltage_C -7188.011+12450.000j;
	constant_power_A 58379.057+14114.493j;
	constant_power_B 54074.975+16340.710j;
	constant_power_C 55922.895+13605.628j;
	load_class "C";
}

object load {
	name R2-25-00-1_load_9;
	parent R2-25-00-1_meter_9;
	phases "ABCN";
	nominal_voltage 14376.022;
	voltage_A 14376.022+0.0j;
	voltage_B -7188.011-12450.000j;
	voltage_C -7188.011+12450.000j;
	constant_power_A 3891.936+940.966j;
	constant_power_B 3604.997+1089.380j;
	constant_power_C 3728.192+907.042j;
	load_class "C";
}

object load {
	name R2-25-00-1_load_10;
	parent R2-25-00-1_meter_10;
	phases "ABCN";
	nominal_voltage 14376.022;
	voltage_A 14376.022+0.0j;
	voltage_B -7188.011-12450.000j;
	voltage_C -7188.011+12450.000j;
	constant_power_A 35027.434+8468.696j;
	constant_power_B 32444.985+9804.426j;
	constant_power_C 33553.737+8163.377j;
	load_class "C";
}

object load {
	name R2-25-00-1_load_11;
	parent R2-25-00-1_meter_11;
	phases "ABCN";
	nominal_voltage 14376.022;
	voltage_A 14376.022+0.0j;
	voltage_B -7188.011-12450.000j;
	voltage_C -7188.011+12450.000j;
	constant_power_A 35027.434+8468.696j;
	constant_power_B 32444.985+9804.426j;
	constant_power_C 33553.737+8163.377j;
	load_class "C";
}

object load {
	name R2-25-00-1_load_12;
	parent R2-25-00-1_meter_12;
	phases "ABCN";
	nominal_voltage 14376.022;
	voltage_A 14376.022+0.0j;
	voltage_B -7188.011-12450.000j;
	voltage_C -7188.011+12450.000j;
	constant_power_A 13232.571+3199.281j;
	constant_power_B 12256.980+3703.890j;
	constant_power_C 12675.841+3083.939j;
	load_class "C";
}

object load {
	name R2-25-00-1_load_13;
	parent R2-25-00-1_meter_13;
	phases "ABCN";
	nominal_voltage 14376.022;
	voltage_A 14376.022+0.0j;
	voltage_B -7188.011-12450.000j;
	voltage_C -7188.011+12450.000j;
	constant_power_A 23351.623+5645.797j;
	constant_power_B 21629.990+6536.284j;
	constant_power_C 22369.158+5442.251j;
	load_class "C";
}

object load {
	name R2-25-00-1_load_14;
	parent R2-25-00-1_meter_16;
	phases "ABCN";
	nominal_voltage 14376.022;
	voltage_A 14376.022+0.0j;
	voltage_B -7188.011-12450.000j;
	voltage_C -7188.011+12450.000j;
	constant_power_A 7005.487+1693.739j;
	constant_power_B 6488.997+1960.885j;
	constant_power_C 6710.747+1632.675j;
	load_class "C";
}

object load {
	name R2-25-00-1_load_15;
	parent R2-25-00-1_meter_14;
	phases "ABCN";
	nominal_voltage 14376.022;
	voltage_A 14376.022+0.0j;
	voltage_B -7188.011-12450.000j;
	voltage_C -7188.011+12450.000j;
	constant_power_A 10897.408+2634.702j;
	constant_power_B 10093.981+3050.262j;
	constant_power_C 10438.926+2539.714j;
	load_class "C";
}

object load {
	name R2-25-00-1_load_16;
	parent R2-25-00-1_meter_15;
	phases "ABCN";
	nominal_voltage 14376.022;
	voltage_A 14376.022+0.0j;
	voltage_B -7188.011-12450.000j;
	voltage_C -7188.011+12450.000j;
	constant_power_A 35027.434+8468.696j;
	constant_power_B 32444.985+9804.426j;
	constant_power_C 33553.737+8163.377j;
	load_class "C";
}

object load {
	name R2-25-00-1_load_17;
	parent R2-25-00-1_meter_17;
	phases "ABCN";
	nominal_voltage 14376.022;
	voltage_A 14376.022+0.0j;
	voltage_B -7188.011-12450.000j;
	voltage_C -7188.011+12450.000j;
	constant_power_A 4670.325+1129.159j;
	constant_power_B 4325.998+1307.257j;
	constant_power_C 4473.832+1088.450j;
	load_class "C";
}

object load {
	name R2-25-00-1_load_18;
	parent R2-25-00-1_meter_18;
	phases "ABCN";
	nominal_voltage 14376.022;
	voltage_A 14376.022+0.0j;
	voltage_B -7188.011-12450.000j;
	voltage_C -7188.011+12450.000j;
	constant_power_A 7783.890+1881.936j;
	constant_power_B 7210.011+2178.766j;
	constant_power_C 7456.401+1814.087j;
	load_class "C";
}

object load {
	name R2-25-00-1_load_19;
	parent R2-25-00-1_meter_19;
	phases "ABCN";
	nominal_voltage 14376.022;
	voltage_A 14376.022+0.0j;
	voltage_B -7188.011-12450.000j;
	voltage_C -7188.011+12450.000j;
	constant_power_A 3876.369+937.202j;
	constant_power_B 3590.578+1085.023j;
	constant_power_C 3713.280+903.414j;
	load_class "C";
}

object load {
	name R2-25-00-1_load_20;
	parent R2-25-00-1_meter_20;
	phases "ABCN";
	nominal_voltage 14376.022;
	voltage_A 14376.022+0.0j;
	voltage_B -7188.011-12450.000j;
	voltage_C -7188.011+12450.000j;
	constant_power_A 11675.811+2822.899j;
	constant_power_B 10814.995+3268.142j;
	constant_power_C 11184.579+2721.126j;
	load_class "C";
}

object load {
	name R2-25-00-1_load_21;
	parent R2-25-00-1_meter_21;
	phases "ABCN";
	nominal_voltage 14376.022;
	voltage_A 14376.022+0.0j;
	voltage_B -7188.011-12450.000j;
	voltage_C -7188.011+12450.000j;
	constant_power_A 35027.434+8468.696j;
	constant_power_B 32444.985+9804.426j;
	constant_power_C 33553.737+8163.377j;
	load_class "C";
}

object load {
	name R2-25-00-1_load_22;
	parent R2-25-00-1_meter_22;
	phases "ABCN";
	nominal_voltage 14376.022;
	voltage_A 14376.022+0.0j;
	voltage_B -7188.011-12450.000j;
	voltage_C -7188.011+12450.000j;
	constant_power_A 35027.434+8468.696j;
	constant_power_B 32444.985+9804.426j;
	constant_power_C 33553.737+8163.377j;
	load_class "C";
}

object load {
	name R2-25-00-1_load_23;
	parent R2-25-00-1_meter_23;
	phases "ABCN";
	nominal_voltage 14376.022;
	voltage_A 14376.022+0.0j;
	voltage_B -7188.011-12450.000j;
	voltage_C -7188.011+12450.000j;
	constant_power_A 11675.811+2822.899j;
	constant_power_B 10814.995+3268.142j;
	constant_power_C 11184.579+2721.126j;
	load_class "C";
}

object load {
	name R2-25-00-1_load_24;
	parent R2-25-00-1_meter_24;
	phases "ABCN";
	nominal_voltage 14376.022;
	voltage_A 14376.022+0.0j;
	voltage_B -7188.011-12450.000j;
	voltage_C -7188.011+12450.000j;
	constant_power_A 7783.890+1881.936j;
	constant_power_B 7210.011+2178.766j;
	constant_power_C 7456.401+1814.087j;
	load_class "A";
}

object load {
	name R2-25-00-1_load_25;
	parent R2-25-00-1_meter_25;
	phases "ABCN";
	nominal_voltage 14376.022;
	voltage_A 14376.022+0.0j;
	voltage_B -7188.011-12450.000j;
	voltage_C -7188.011+12450.000j;
	constant_power_A 50000.000+37700.000j;
	constant_power_B 50000.000+37700.000j;
	constant_power_C 50000.000+37700.000j;
	load_class "C";
}

object load {
	name R2-25-00-1_load_26;
	parent R2-25-00-1_meter_26;
	phases "ABCN";
	nominal_voltage 14376.022;
	voltage_A 14376.022+0.0j;
	voltage_B -7188.011-12450.000j;
	voltage_C -7188.011+12450.000j;
	constant_power_A 11675.811+2822.899j;
	constant_power_B 10814.995+3268.142j;
	constant_power_C 11184.579+2721.126j;
	load_class "C";
}

object load {
	name R2-25-00-1_load_27;
	parent R2-25-00-1_meter_27;
	phases "ABCN";
	nominal_voltage 14376.022;
	voltage_A 14376.022+0.0j;
	voltage_B -7188.011-12450.000j;
	voltage_C -7188.011+12450.000j;
	constant_power_A 222700.000+167000.000j;
	constant_power_B 222700.000+167000.000j;
	constant_power_C 222700.000+167000.000j;
	load_class "A";
}

object load {
	name R2-25-00-1_load_28;
	parent R2-25-00-1_meter_28;
	phases "ABCN";
	nominal_voltage 14376.022;
	voltage_A 14376.022+0.0j;
	voltage_B -7188.011-12450.000j;
	voltage_C -7188.011+12450.000j;
	constant_power_A 23351.623+5645.797j;
	constant_power_B 21629.990+6536.284j;
	constant_power_C 22369.158+5442.251j;
	load_class "C";
}

object load {
	name R2-25-00-1_load_29;
	parent R2-25-00-1_meter_29;
	phases "ABCN";
	nominal_voltage 14376.022;
	voltage_A 14376.022+0.0j;
	voltage_B -7188.011-12450.000j;
	voltage_C -7188.011+12450.000j;
	constant_power_A 46703.246+11291.594j;
	constant_power_B 43259.980+13072.568j;
	constant_power_C 44738.316+10884.503j;
	load_class "C";
}

object load {
	name R2-25-00-1_load_30;
	parent R2-25-00-1_meter_30;
	phases "ABCN";
	nominal_voltage 14376.022;
	voltage_A 14376.022+0.0j;
	voltage_B -7188.011-12450.000j;
	voltage_C -7188.011+12450.000j;
	constant_power_A 7783.890+1881.936j;
	constant_power_B 7210.011+2178.766j;
	constant_power_C 7456.401+1814.087j;
	load_class "C";
}

object load {
	name R2-25-00-1_load_31;
	parent R2-25-00-1_meter_31;
	phases "ABCN";
	nominal_voltage 14376.022;
	voltage_A 14376.022+0.0j;
	voltage_B -7188.011-12450.000j;
	voltage_C -7188.011+12450.000j;
	constant_power_A 14010.974+3387.478j;
	constant_power_B 12977.994+3921.770j;
	constant_power_C 13421.495+3265.351j;
	load_class "C";
}

object load {
	name R2-25-00-1_load_32;
	parent R2-25-00-1_meter_32;
	phases "ABCN";
	nominal_voltage 14376.022;
	voltage_A 14376.022+0.0j;
	voltage_B -7188.011-12450.000j;
	voltage_C -7188.011+12450.000j;
	constant_power_A 233516.229+56457.971j;
	constant_power_B 216299.900+65362.840j;
	constant_power_C 223691.581+54422.514j;
	load_class "C";
}

object load {
	name R2-25-00-1_load_33;
	parent R2-25-00-1_meter_33;
	phases "ABCN";
	nominal_voltage 14376.022;
	voltage_A 14376.022+0.0j;
	voltage_B -7188.011-12450.000j;
	voltage_C -7188.011+12450.000j;
	constant_power_A 59157.600+14302.724j;
	constant_power_B 54796.119+16558.630j;
	constant_power_C 56668.683+13787.073j;
	load_class "C";
}

object load {
	name R2-25-00-1_load_34;
	parent R2-25-00-1_meter_34;
	phases "ABCN";
	nominal_voltage 14376.022;
	voltage_A 14376.022+0.0j;
	voltage_B -7188.011-12450.000j;
	voltage_C -7188.011+12450.000j;
	constant_power_A 55000.000+41000.000j;
	constant_power_B 55000.000+41000.000j;
	constant_power_C 55000.000+41000.000j;
	load_class "A";
}

object load {
	name R2-25-00-1_load_35;
	parent R2-25-00-1_meter_35;
	phases "ABCN";
	nominal_voltage 14376.022;
	voltage_A 14376.022+0.0j;
	voltage_B -7188.011-12450.000j;
	voltage_C -7188.011+12450.000j;
	constant_power_A 49700.000+37000.000j;
	constant_power_B 49700.000+37000.000j;
	constant_power_C 49700.000+37000.000j;
	load_class "C";
}

object load {
	name R2-25-00-1_load_36;
	parent R2-25-00-1_meter_36;
	phases "ABCN";
	nominal_voltage 14376.022;
	voltage_A 14376.022+0.0j;
	voltage_B -7188.011-12450.000j;
	voltage_C -7188.011+12450.000j;
	constant_power_A 589000.000+365000.000j;
	constant_power_B 589000.000+365000.000j;
	constant_power_C 589000.000+365000.000j;
	load_class "C";
}

object load {
	name R2-25-00-1_load_37;
	parent R2-25-00-1_meter_37;
	phases "ABCN";
	nominal_voltage 14376.022;
	voltage_A 14376.022+0.0j;
	voltage_B -7188.011-12450.000j;
	voltage_C -7188.011+12450.000j;
	constant_power_A 2335.162+564.580j;
	constant_power_B 2162.999+653.628j;
	constant_power_C 2236.916+544.225j;
	load_class "C";
}

object load {
	name R2-25-00-1_load_38;
	parent R2-25-00-1_meter_38;
	phases "ABCN";
	nominal_voltage 14376.022;
	voltage_A 14376.022+0.0j;
	voltage_B -7188.011-12450.000j;
	voltage_C -7188.011+12450.000j;
	constant_power_A 31135.513+7527.733j;
	constant_power_B 28840.001+8715.050j;
	constant_power_C 29825.559+7256.339j;
	load_class "C";
}

object load {
	name R2-25-00-1_load_39;
	parent R2-25-00-1_meter_39;
	phases "ABCN";
	nominal_voltage 14376.022;
	voltage_A 14376.022+0.0j;
	voltage_B -7188.011-12450.000j;
	voltage_C -7188.011+12450.000j;
	constant_power_A 7799.442+1885.696j;
	constant_power_B 7224.417+2183.119j;
	constant_power_C 7471.299+1817.712j;
	load_class "C";
}

object load {
	name R2-25-00-1_load_40;
	parent R2-25-00-1_meter_40;
	phases "ABCN";
	nominal_voltage 14376.022;
	voltage_A 14376.022+0.0j;
	voltage_B -7188.011-12450.000j;
	voltage_C -7188.011+12450.000j;
	constant_power_A 23351.623+5645.797j;
	constant_power_B 21629.990+6536.284j;
	constant_power_C 22369.158+5442.251j;
	load_class "C";
}

object load {
	name R2-25-00-1_load_41;
	parent R2-25-00-1_meter_41;
	phases "ABCN";
	nominal_voltage 14376.022;
	voltage_A 14376.022+0.0j;
	voltage_B -7188.011-12450.000j;
	voltage_C -7188.011+12450.000j;
	constant_power_A 6227.084+1505.542j;