//*********************************************
// $Id: R3-12.47-2.glm 1132 2008-11-18 22:36:10Z dchassin $ 
//*********************************************

clock { 
	 timezone MST+7MDT;
	 timestamp '2000-01-01 0:00:00';


//*********************************************
// modules
module powerflow;


object triplex_line_conductor: {
	name 1/0 AA triplex;
	resistance 0.97;
	geometric_mean_radius 0.0111;
}

object triplex_line_configuration:1 {
	conductor_1 1/0 AA triplex;
	conductor_2 1/0 AA triplex;
	conductor_N 1/0 AA triplex;
	insulation_thickness 0.08;
	diameter 0.368;
}

object transformer:112  {
	phases "BS";
	from 181_76778;
	to 181_76778_CB_M;
	configuration transformer_configuration:63;
}

object triplex_meter:113 {
	name 181_76778_CB_M;
	phases "BS";
	nominal_voltage 120;
	voltage_1 -60.000-103.923j;
	voltage_2 -60.000-103.923j;
	voltage_N 0;
}

object triplex_node:114 {
	name 181_76778_CB_TX;
	parent 181_76778_CB_M;
	phases BS;
	nominal_voltage 120;
	latitude 51N32'55.352";
	longitude 113W50'58.401";
	power_1 6.43522304524123+1.90693630401834j;
	voltage_1 -60.000-103.923j;
	voltage_2 -60.000-103.923j;
	voltage_N 0;
}

object transformer:115  {
	phases "AS";
	from 181_4312;
	to 181_4312_CA_M;
	configuration transformer_configuration:51;
}

object triplex_meter:116 {
	name 181_4312_CA_M;
	phases "AS";
	nominal_voltage 120;
	voltage_1 120;
	voltage_2 120;
	voltage_N 0;
}

object triplex_node:117 {
	name 181_4312_CA_TX;
	parent 181_4312_CA_M;
	phases AS;
	nominal_voltage 120;
	latitude 51N33'13.363";
	longitude 113W51'41.310";
	power_1 6.15622569516731+1.83675230329455j;
	voltage_1 120;
	voltage_2 120;
	voltage_N 0;
}

object transformer:118  {
	phases "AS";
	from 181_4413;
	to 181_4413_CA_M;
	configuration transformer_configuration:52;
}

object triplex_meter:119 {
	name 181_4413_CA_M;
	phases "AS";
	nominal_voltage 120;
	voltage_1 120;
	voltage_2 120;
	voltage_N 0;
}

object triplex_node:120 {
	name 181_4413_CA_TX;
	parent 181_4413_CA_M;
	phases AS;
	nominal_voltage 120;
	latitude 51N33'5.422";
	longitude 113W51'36.817";
	power_1 10.2603761586122+3.06125383882426j;
	voltage_1 120;
	voltage_2 120;
	voltage_N 0;
}

object transformer:121  {
	phases "BS";
	from 181_148478;
	to 181_148478_IB_M;
	configuration transformer_configuration:64;
}

object triplex_meter:122 {
	name 181_148478_IB_M;
	phases "BS";
	nominal_voltage 120;
	voltage_1 -60.000-103.923j;
	voltage_2 -60.000-103.923j;
	voltage_N 0;
}

object triplex_node:123 {
	name 181_148478_IB_TX;
	parent 181_148478_IB_M;
	phases BS;
	nominal_voltage 120;
	latitude 51N33'2.712";
	longitude 113W51'12.119";
	power_1 0.429014869682749+0.127129086934556j;
	voltage_1 -60.000-103.923j;
	voltage_2 -60.000-103.923j;
	voltage_N 0;
}

object transformer:124  {
	phases "BS";
	from 181_21567;
	to 181_21567_CB_M;
	configuration transformer_configuration:65;
}

object triplex_meter:125 {
	name 181_21567_CB_M;
	phases "BS";
	nominal_voltage 120;
	voltage_1 -60.000-103.923j;
	voltage_2 -60.000-103.923j;
	voltage_N 0;
}

object triplex_node:126 {
	name 181_21567_CB_TX;
	parent 181_21567_CB_M;
	phases BS;
	nominal_voltage 120;
	latitude 51N33'0.507";
	longitude 113W51'4.447";
	power_1 10.7253717420687+3.17822717336391j;
	voltage_1 -60.000-103.923j;
	voltage_2 -60.000-103.923j;
	voltage_N 0;
}

object transformer:127  {
	phases "AS";
	from 181_21580;
	to 181_21580_CA_M;
	configuration transformer_configuration:51;
}

object triplex_meter:128 {
	name 181_21580_CA_M;
	phases "AS";
	nominal_voltage 120;
	voltage_1 120;
	voltage_2 120;
	voltage_N 0;
}

object triplex_node:129 {
	name 181_21580_CA_TX;
	parent 181_21580_CA_M;
	phases AS;
	nominal_voltage 120;
	latitude 51N32'57.655";
	longitude 113W51'32.679";
	power_1 6.15622569516731+1.83675230329455j;
	voltage_1 120;
	voltage_2 120;
	voltage_N 0;
}

object transformer:130  {
	phases "AS";
	from 181_4516;
	to 181_4516_CA_M;
	configuration transformer_configuration:51;
}

object triplex_meter:131 {
	name 181_4516_CA_M;
	phases "AS";
	nominal_voltage 120;
	voltage_1 120;
	voltage_2 120;
	voltage_N 0;
}

object triplex_node:132 {
	name 181_4516_CA_TX;
	parent 181_4516_CA_M;
	phases AS;
	nominal_voltage 120;
	latitude 51N32'52.077";
	longitude 113W51'33.177";
	power_1 6.15622569516731+1.83675230329455j;
	voltage_1 120;
	voltage_2 120;
	voltage_N 0;
}

object transformer:133  {
	phases "BS";
	from 181_4546;
	to 181_4546_CB_M;
	configuration transformer_configuration:66;
}

object triplex_meter:134 {
	name 181_4546_CB_M;
	phases "BS";
	nominal_voltage 120;
	voltage_1 -60.000-103.923j;
	voltage_2 -60.000-103.923j;
	voltage_N 0;
}

object triplex_node:135 {
	name 181_4546_CB_TX;
	parent 181_4546_CB_M;
	phases BS;
	nominal_voltage 120;
	latitude 51N32'48.958";
	longitude 113W50'56.835";
	power_1 4.29014869682749+1.27129086934556j;
	voltage_1 -60.000-103.923j;
	voltage_2 -60.000-103.923j;
	voltage_N 0;
}

object transformer:136  {
	phases "A|B|C|N";
	from 181_4551;
	to 181_4551_C_M;
	configuration transformer_configuration:95;
}

object meter:137 {
	name 181_4551_C_M;
	phases "ABCN";
	nominal_voltage 7199.558;
	voltage_A 7199.558+0.0j;
	voltage_B -3599.779-6235.000j;
	voltage_C -3599.779+6235.000j;
}
object transformer:138  {
	phases "A|B|C|N";
	from 181_4586;
	to 181_4586_C_M;
	configuration transformer_configuration:95;
}

object meter:139 {
	name 181_4586_C_M;
	phases "ABCN";
	nominal_voltage 7199.558;
	voltage_A 7199.558+0.0j;
	voltage_B -3599.779-6235.000j;
	voltage_C -3599.779+6235.000j;
}
object transformer:140  {
	phases "AS";
	from 181_4621;
	to 181_4621_CA_M;
	configuration transformer_configuration:51;
}

object triplex_meter:141 {
	name 181_4621_CA_M;
	phases "AS";
	nominal_voltage 120;
	voltage_1 120;
	voltage_2 120;
	voltage_N 0;
}

object triplex_node:142 {
	name 181_4621_CA_TX;
	parent 181_4621_CA_M;
	phases AS;
	nominal_voltage 120;
	latitude 51N32'39.518";
	longitude 113W51'3.080";
	power_1 6.15622569516731+1.83675230329455j;
	voltage_1 120;
	voltage_2 120;
	voltage_N 0;
}

object transformer:143  {
	phases "A|B|C|N";
	from 181_4622;
	to 181_4622_C_M;
	configuration transformer_configuration:95;
}

object meter:144 {
	name 181_4622_C_M;
	phases "ABCN";
	nominal_voltage 7199.558;
	voltage_A 7199.558+0.0j;
	voltage_B -3599.779-6235.000j;
	voltage_C -3599.779+6235.000j;
}
object transformer:145  {
	phases "AS";
	from 181_21630;
	to 181_21630_CA_M;
	configuration transformer_configuration:53;
}

object triplex_meter:146 {
	name 181_21630_CA_M;
	phases "AS";
	nominal_voltage 120;
	voltage_1 120;
	voltage_2 120;
	voltage_N 0;
}

object triplex_node:147 {
	name 181_21630_CA_TX;
	parent 181_21630_CA_M;
	phases AS;
	nominal_voltage 120;
	latitude 51N32'38.770";
	longitude 113W51'9.331";
	power_1 2.05207523172243+0.612250767764851j;
	voltage_1 120;
	voltage_2 120;
	voltage_N 0;
}

object transformer:148  {
	phases "A|B|C|N";
	from 181_4633;
	to 181_4633_C_M;
	configuration transformer_configuration:97;
}

object meter:149 {
	name 181_4633_C_M;
	phases "ABCN";
	nominal_voltage 7199.558;
	voltage_A 7199.558+0.0j;
	voltage_B -3599.779-6235.000j;
	voltage_C -3599.779+6235.000j;
}
object transformer:150  {
	phases "A|B|C|N";
	from 181_4645;
	to 181_4645_C_M;
	configuration transformer_configuration:98;
}

object meter:151 {
	name 181_4645_C_M;
	phases "ABCN";
	nominal_voltage 7199.558;
	voltage_A 7199.558+0.0j;
	voltage_B -3599.779-6235.000j;
	voltage_C -3599.779+6235.000j;
}
object transformer:152  {
	phases "BS";
	from 181_4646;
	to 181_4646_CB_M;
	configuration transformer_configuration:63;
}

object triplex_meter:153 {
	name 181_4646_CB_M;
	phases "BS";
	nominal_voltage 120;
	voltage_1 -60.000-103.923j;
	voltage_2 -60.000-103.923j;
	voltage_N 0;
}

object triplex_node:154 {
	name 181_4646_CB_TX;
	parent 181_4646_CB_M;
	phases BS;
	nominal_voltage 120;
	latitude 51N32'36.647";
	longitude 113W51'3.073";
	power_1 6.43522304524123+1.90693630401834j;
	voltage_1 -60.000-103.923j;
	voltage_2 -60.000-103.923j;
	voltage_N 0;
}

object transformer:155  {
	phases "A|B|C|N";
	from 181_4659;
	to 181_4659_C_M;
	configuration transformer_configuration:98;
}

object meter:156 {
	name 181_4659_C_M;
	phases "ABCN";
	nominal_voltage 7199.558;
	voltage_A 7199.558+0.0j;
	voltage_B -3599.779-6235.000j;
	voltage_C -3599.779+6235.000j;
}
object transformer:157  {
	phases "A|B|C|N";
	from 181_4661;
	to 181_4661_C_M;
	configuration transformer_configuration:95;
}

object meter:158 {
	name 181_4661_C_M;
	phases "ABCN";
	nominal_voltage 7199.558;
	voltage_A 7199.558+0.0j;
	voltage_B -3599.779-6235.000j;
	voltage_C -3599.779+6235.000j;
}
object transformer:159  {
	phases "A|B|C|N";
	from 181_4695;
	to 181_4695_C_M;
	configuration transformer_configuration:98;
}

object meter:160 {
	name 181_4695_C_M;
	phases "ABCN";
	nominal_voltage 7199.558;
	voltage_A 7199.558+0.0j;
	voltage_B -3599.779-6235.000j;
	voltage_C -3599.779+6235.000j;
}
object transformer:161  {
	phases "A|B|C|N";
	from 181_4696;
	to 181_4696_C_M;
	configuration transformer_configuration:97;
}

object meter:162 {
	name 181_4696_C_M;
	phases "ABCN";
	nominal_voltage 7199.558;
	voltage_A 7199.558+0.0j;
	voltage_B -3599.779-6235.000j;
	voltage_C -3599.779+6235.000j;
}
object transformer:163  {
	phases "BS";
	from 181_4736;
	to 181_4736_CB_M;
	configuration transformer_configuration:63;
}

object triplex_meter:164 {
	name 181_4736_CB_M;
	phases "BS";
	nominal_voltage 120;
	voltage_1 -60.000-103.923j;
	voltage_2 -60.000-103.923j;
	voltage_N 0;
}

object triplex_node:165 {
	name 181_4736_CB_TX;
	parent 181_4736_CB_M;
	phases BS;
	nominal_voltage 120;
	latitude 51N32'27.419";
	longitude 113W51'18.625";
	power_1 6.43522304524123+1.90693630401834j;
	voltage_1 -60.000-103.923j;
	voltage_2 -60.000-103.923j;
	voltage_N 0;
}

object transformer:166  {
	phases "A|B|C|N";
	from 181_73247;
	to 181_73247_C_M;
	configuration transformer_configuration:101;
}

object meter:167 {
	name 181_73247_C_M;
	phases "ABCN";
	nominal_voltage 7199.558;
	voltage_A 7199.558+0.0j;
	voltage_B -3599.779-6235.000j;
	voltage_C -3599.779+6235.000j;
}
object transformer:168  {
	phases "A|B|C|N";
	from 181_75803;
	to 181_75803_C_M;
	configuration transformer_configuration:102;
}

object meter:169 {
	name 181_75803_C_M;
	phases "ABCN";
	nominal_voltage 7199.558;
	voltage_A 7199.558+0.0j;
	voltage_B -3599.779-6235.000j;
	voltage_C -3599.779+6235.000j;
}
object transformer:170  {
	phases "AS";
	from 181_76777;
	to 181_76777_CA_M;
	configuration transformer_configuration:57;
}

object triplex_meter:171 {
	name 181_76777_CA_M;
	phases "AS";
	nominal_voltage 120;
	voltage_1 120;
	voltage_2 120;
	voltage_N 0;
}

object triplex_node:172 {
	name 181_76777_CA_TX;
	parent 181_76777_CA_M;
	phases AS;
	nominal_voltage 120;
	latitude 51N33'18.987";
	longitude 113W51'23.186";
	power_1 10.2603761586122+3.06125383882426j;
	voltage_1 120;
	voltage_2 120;
	voltage_N 0;
}

object transformer:173  {
	phases "A|B|C|N";
	from 181_26659;
	to 181_26659_C_M;
	configuration transformer_configuration:104;
}

object meter:174 {
	name 181_26659_C_M;
	phases "ABCN";
	nominal_voltage 7199.558;
	voltage_A 7199.558+0.0j;
	voltage_B -3599.779-6235.000j;
	voltage_C -3599.779+6235.000j;
}
object transformer:175  {
	phases "A|B|C|N";
	from 181_26721;
	to 181_26721_C_M;
	configuration transformer_configuration:105;
}

object meter:176 {
	name 181_26721_C_M;
	phases "ABCN";
	nominal_voltage 7199.558;
	voltage_A 7199.558+0.0j;
	voltage_B -3599.779-6235.000j;
	voltage_C -3599.779+6235.000j;
}
object transformer:177  {
	phases "A|B|C|N";
	from 181_104923;
	to 181_104923_I_M;
	configuration transformer_configuration:104;
}

object meter:178 {
	name 181_104923_I_M;
	phases "ABCN";
	nominal_voltage 7199.558;
	voltage_A 7199.558+0.0j;
	voltage_B -3599.779-6235.000j;
	voltage_C -3599.779+6235.000j;
}
object transformer:179  {
	phases "AS";
	from 181_132780;
	to 181_132780_CA_M;
	configuration transformer_configuration:57;
}

object triplex_meter:180 {
	name 181_132780_CA_M;
	phases "AS";
	nominal_voltage 120;
	voltage_1 120;
	voltage_2 120;
	voltage_N 0;
}

object triplex_node:181 {
	name 181_132780_CA_TX;
	parent 181_132780_CA_M;
	phases AS;
	nominal_voltage 120;
	latitude 51N33'19.279";
	longitude 113W51'29.731";
	power_1 10.2603761586122+3.06125383882426j;
	voltage_1 120;
	voltage_2 120;
	voltage_N 0;
}

object transformer:182  {
	phases "A|B|C|N";
	from 181_16240;
	to 181_16240_C_M;
	configuration transformer_configuration:106;
}

object meter:183 {
	name 181_16240_C_M;
	phases "ABCN";
	nominal_voltage 7199.558;
	voltage_A 7199.558+0.0j;
	voltage_B -3599.779-6235.000j;
	voltage_C -3599.779+6235.000j;
}
object transformer:184  {
	phases "A|B|C|N";
	from 181_16223;
	to 181_16223_C_M;
	configuration transformer_configuration:106;
}

object meter:185 {
	name 181_16223_C_M;
	phases "ABCN";
	nominal_voltage 7199.558;
	voltage_A 7199.558+0.0j;
	voltage_B -3599.779-6235.000j;
	voltage_C -3599.779+6235.000j;
}
object transformer:186  {
	phases "AS";
	from 181_16249;
	to 181_16249_CA_M;
	configuration transformer_configuration:57;
}

object triplex_meter:187 {
	name 181_16249_CA_M;
	phases "AS";
	nominal_voltage 120;
	voltage_1 120;
	voltage_2 120;
	voltage_N 0;
}

object triplex_node:188 {
	name 181_16249_CA_TX;
	parent 181_16249_CA_M;
	phases AS;
	nominal_voltage 120;
	latitude 51N33'41.292";
	longitude 113W51'6.462";
	power_1 10.2603761586122+3.06125383882426j;
	voltage_1 120;
	voltage_2 120;
	voltage_N 0;
}

object transformer:189  {
	phases "A|B|C|N";
	from 181_16300;
	to 181_16300_C_M;
	configuration transformer_configuration:102;
}

object meter:190 {
	name 181_16300_C_M;
	phases "ABCN";
	nominal_voltage 7199.558;
	voltage_A 7199.558+0.0j;
	voltage_B -3599.779-6235.000j;
	voltage_C -3599.779+6235.000j;
}
object transformer:191  {
	phases "A|B|C|N";
	from 181_16329;
	to 181_16329_C_M;
	configuration transformer_configuration:106;
}

object meter:192 {
	name 181_16329_C_M;
	phases "ABCN";
	nominal_voltage 7199.558;
	voltage_A 7199.558+0.0j;
	voltage_B -3599.779-6235.000j;
	voltage_C -3599.779+6235.000j;
}
object transformer:193  {
	phases "BS";
	from 181_16335;
	to 181_16335_CB_M;
	configuration transformer_configuration:72;
}

object triplex_meter:194 {
	name 181_16335_CB_M;
	phases "BS";
	nominal_voltage 120;
	voltage_1 -60.000-103.923j;
	voltage_2 -60.000-103.923j;
	voltage_N 0;
}

object triplex_node:195 {
	name 181_16335_CB_TX;
	parent 181_16335_CB_M;
	phases BS;
	nominal_voltage 120;
	latitude 51N33'35.957";
	longitude 113W50'52.652";
	power_1 10.7253717420687+3.17822717336391j;
	voltage_1 -60.000-103.923j;
	voltage_2 -60.000-103.923j;
	voltage_N 0;
}

object transformer:196  {
	phases "A|B|C|N";
	from 181_16348;
	to 181_16348_C_M;
	configuration transformer_configuration:102;
}

object meter:197 {
	name 181_16348_C_M;
	phases "ABCN";
	nominal_voltage 7199.558;
	voltage_A 7199.558+0.0j;
	voltage_B -3599.779-6235.000j;
	voltage_C -3599.779+6235.000j;
}
object transformer:198  {
	phases "BS";
	from 181_16371;
	to 181_16371_CB_M;
	configuration transformer_configuration:72;
}

object triplex_meter:199 {
	name 181_16371_CB_M;
	phases "BS";
	nominal_voltage 120;
	voltage_1 -60.000-103.923j;
	voltage_2 -60.000-103.923j;
	voltage_N 0;
}

object triplex_node:200 {
	name 181_16371_CB_TX;
	parent 181_16371_CB_M;
	phases BS;
	nominal_voltage 120;
	latitude 51N33'33.438";
	longitude 113W51'1.432";
	power_1 10.7253717420687+3.17822717336391j;
	voltage_1 -60.000-103.923j;
	voltage_2 -60.000-103.923j;
	voltage_N 0;
}

object transformer:201  {
	phases "A|B|C|N";
	from 181_16499;
	to 181_16499_C_M;
	configuration transformer_configuration:102;
}

object meter:202 {
	name 181_16499_C_M;
	phases "ABCN";
	nominal_voltage 7199.558;
	voltage_A 7199.558+0.0j;
	voltage_B -3599.779-6235.000j;
	voltage_C -3599.779+6235.000j;
}
object transformer:203  {
	phases "BS";
	from 181_16605;
	to 181_16605_CB_M;
	configuration transformer_configuration:73;
}

object triplex_meter:204 {
	name 181_16605_CB_M;
	phases "BS";
	nominal_voltage 120;
	voltage_1 -60.000-103.923j;
	voltage_2 -60.000-103.923j;
	voltage_N 0;
}

object triplex_node:205 {
	name 181_16605_CB_TX;
	parent 181_16605_CB_M;
	phases BS;
	nominal_voltage 120;
	latitude 51N33'17.439";
	longitude 113W51'31.562";
	power_1 4.29014869682749+1.27129086934556j;
	voltage_1 -60.000-103.923j;
	voltage_2 -60.000-103.923j;
	voltage_N 0;
}

object transformer:206  {
	phases "A|B|C|N";
	from 181_16624;
	to 181_16624_C_M;
	configuration transformer_configuration:101;
}

object meter:207 {
	name 181_16624_C_M;
	phases "ABCN";
	nominal_voltage 7199.558;
	voltage_A 7199.558+0.0j;
	voltage_B -3599.779-6235.000j;
	voltage_C -3599.779+6235.000j;
}
object transformer:208  {
	phases "BS";
	from 181_16702;
	to 181_16702_CB_M;
	configuration transformer_configuration:73;
}

object triplex_meter:209 {
	name 181_16702_CB_M;
	phases "BS";
	nominal_voltage 120;
	voltage_1 -60.000-103.923j;
	voltage_2 -60.000-103.923j;
	voltage_N 0;
}

object triplex_node:210 {
	name 181_16702_CB_TX;
	parent 181_16702_CB_M;
	phases BS;
	nominal_voltage 120;
	latitude 51N33'8.287";
	longitude 113W51'9.365";
	power_1 4.29014869682749+1.27129086934556j;
	voltage_1 -60.000-103.923j;
	voltage_2 -60.000-103.923j;
	voltage_N 0;
}

object transformer:211  {
	phases "A|B|C|N";
	from 181_26597;
	to 181_26597_I_M;
	configuration transformer_configuration:109;
}

object meter:212 {
	name 181_26597_I_M;
	phases "ABCN";
	nominal_voltage 7199.558;
	voltage_A 7199.558+0.0j;
	voltage_B -3599.779-6235.000j;
	voltage_C -3599.779+6235.000j;
}
object transformer:213  {
	phases "A|B|C|N";
	from 181_17019;
	to 181_17019_I_M;
	configuration transformer_configuration:101;
}

object meter:214 {
	name 181_17019_I_M;
	phases "ABCN";
	nominal_voltage 7199.558;
	voltage_A 7199.558+0.0j;
	voltage_B -3599.779-6235.000j;
	voltage_C -3599.779+6235.000j;
}
object transformer:215  {
	phases "A|B|C|N";
	from 181_26643;
	to 181_26643_C_M;
	configuration transformer_configuration:104;
}

object meter:216 {
	name 181_26643_C_M;
	phases "ABCN";
	nominal_voltage 7199.558;
	voltage_A 7199.558+0.0j;
	voltage_B -3599.779-6235.000j;
	voltage_C -3599.779+6235.000j;
}
object transformer:217  {
	phases "AS";
	from 181_17142;
	to 181_17142_CA_M;
	configuration transformer_configuration:57;
}

object triplex_meter:218 {
	name 181_17142_CA_M;
	phases "AS";
	nominal_voltage 120;
	voltage_1 120;
	voltage_2 120;
	voltage_N 0;
}

object triplex_node:219 {
	name 181_17142_CA_TX;
	parent 181_17142_CA_M;
	phases AS;
	nominal_voltage 120;
	latitude 51N32'37.058";
	longitude 113W51'12.019";
	power_1 10.2603761586122+3.06125383882426j;
	voltage_1 120;
	voltage_2 120;
	voltage_N 0;
}

object transformer:220  {
	phases "A|B|C|N";
	from 181_17187;
	to 181_17187_C_M;
	configuration transformer_configuration:102;
}

object meter:221 {
	name 181_17187_C_M;
	phases "ABCN";
	nominal_voltage 7199.558;
	voltage_A 7199.558+0.0j;
	voltage_B -3599.779-6235.000j;
	voltage_C -3599.779+6235.000j;
}
object transformer:222  {
	phases "A|B|C|N";
	from 181_17191;
	to 181_17191_C_M;
	configuration transformer_configuration:101;
}

object meter:223 {
	name 181_17191_C_M;
	phases "ABCN";
	nominal_voltage 7199.558;
	voltage_A 7199.558+0.0j;
	voltage_B -3599.779-6235.000j;
	voltage_C -3599.779+6235.000j;
}
object transformer:224  {
	phases "A|B|C|N";
	from 181_17194;
	to 181_17194_C_M;
	configuration transformer_configuration:106;
}

object meter:225 {
	name 181_17194_C_M;
	phases "ABCN";
	nominal_voltage 7199.558;
	voltage_A 7199.558+0.0j;
	voltage_B -3599.779-6235.000j;
	voltage_C -3599.779+6235.000j;
}
object transformer:226  {
	phases "A|B|C|N";
	from 181_26685;
	to 181_26685_C_M;
	configuration transformer_configuration:102;
}

object meter:227 {
	name 181_26685_C_M;
	phases "ABCN";
	nominal_voltage 7199.558;
	voltage_A 7199.558+0.0j;
	voltage_B -3599.779-6235.000j;
	voltage_C -3599.779+6235.000j;
}
object transformer:228  {
	phases "A|B|C|N";
	from 181_17209;
	to 181_17209_C_M;
	configuration transformer_configuration:101;
}

object meter:229 {
	name 181_17209_C_M;
	phases "ABCN";
	nominal_voltage 7199.558;
	voltage_A 7199.558+0.0j;
	voltage_B -3599.779-6235.000j;
	voltage_C -3599.779+6235.000j;
}
object transformer:230  {
	phases "A|B|C|N";
	from 181_17222;
	to 181_17222_C_M;
	configuration transformer_configuration:109;
}

object meter:231 {
	name 181_17222_C_M;
	phases "ABCN";
	nominal_voltage 7199.558;
	voltage_A 7199.558+0.0j;
	voltage_B -3599.779-6235.000j;
	voltage_C -3599.779+6235.000j;
}
object transformer:232  {
	phases "A|B|C|N";
	from 181_17286;
	to 181_17286_C_M;
	configuration transformer_configuration:109;
}

object meter:233 {
	name 181_17286_C_M;
	phases "ABCN";
	nominal_voltage 7199.558;
	voltage_A 7199.558+0.0j;
	voltage_B -3599.779-6235.000j;
	voltage_C -3599.779+6235.000j;
}
object transformer:234  {
	phases "A|B|C|N";
	from 181_17323;
	to 181_17323_C_M;
	configuration transformer_configuration:110;
}

object meter:235 {
	name 181_17323_C_M;
	phases "ABCN";
	nominal_voltage 7199.558;
	voltage_A 7199.558+0.0j;
	voltage_B -3599.779-6235.000j;
	voltage_C -3599.779+6235.000j;
}
object transformer:236  {
	phases "A|B|C|N";
	from 181_17324;
	to 181_17324_C_M;
	configuration transformer_configuration:110;
}

object meter:237 {
	name 181_17324_C_M;
	phases "ABCN";
	nominal_voltage 7199.558;
	voltage_A 7199.558+0.0j;
	voltage_B -3599.779-6235.000j;
	voltage_C -3599.779+6235.000j;
}
object transformer:238  {
	phases "A|B|C|N";
	from 181_17331;
	to 181_17331_C_M;
	configuration transformer_configuration:106;
}

object meter:239 {
	name 181_17331_C_M;
	phases "ABCN";
	nominal_voltage 7199.558;
	voltage_A 7199.558+0.0j;
	voltage_B -3599.779-6235.000j;
	voltage_C -3599.779+6235.000j;
}
object transformer:240  {
	phases "A|B|C|N";
	from 181_16622;
	to 181_16622_C_M;
	configuration transformer_configuration:111;
}

object meter:241 {
	name 181_16622_C_M;
	phases "ABCN";
	nominal_voltage 7199.558;
	voltage_A 7199.558+0.0j;
	voltage_B -3599.779-6235.000j;
	voltage_C -3599.779+6235.000j;
}
object transformer:242  {
	phases "A|B|C|N";
	from 181_26710;
	to 181_26710_C_M;
	configuration transformer_configuration:109;
}

object meter:243 {
	name 181_26710_C_M;
	phases "ABCN";
	nominal_voltage 7199.558;
	voltage_A 7199.558+0.0j;
	voltage_B -3599.779-6235.000j;
	voltage_C -3599.779+6235.000j;
}
object transformer:244  {
	phases "A|B|C|N";
	from 181_31356;
	to 181_31356_C_M;
	configuration transformer_configuration:106;
}

object meter:245 {
	name 181_31356_C_M;
	phases "ABCN";
	nominal_voltage 7199.558;
	voltage_A 7199.558+0.0j;
	voltage_B -3599.779-6235.000j;
	voltage_C -3599.779+6235.000j;
}
object overhead_line_conductor:19 {
	name 123.3 AAAC;
	rating.summer.continuous 256.0 ;
	geometric_mean_radius 0.012 ft;
	resistance 0.18;
}

object overhead_line_conductor:35 {
	name 559.5 AAAC;
	rating.summer.continuous 663.0 ;
	geometric_mean_radius 0.0271 ft;
	resistance 0.045;
}

object overhead_line_conductor:14 {
	name 4 CW;
	rating.summer.continuous 180.0 ;
	geometric_mean_radius 0.0034 ft;
	resistance 0.286;
}

object overhead_line_conductor:11 {
	name 4 CU;
	rating.summer.continuous 149.0 ;
	geometric_mean_radius 0.244 ft;
	resistance 0.306;
}

object overhead_line_conductor:20 {
	name 1/0 AAAC;
	rating.summer.continuous 266.0 ;
	geometric_mean_radius 0.368 ft;
	resistance 1.94304;
}

object overhead_line_conductor:16 {
	name 2 CU;
	rating.summer.continuous 204.0 ;
	geometric_mean_radius 0.292 ft;
	resistance 1.5418;
}

object overhead_line_conductor:28 {
	name 312.8 AAAC;
	rating.summer.continuous 460.0 ;
	geometric_mean_radius 0.0202 ft;
	resistance 0.071;
}

object overhead_line_conductor:27 {
	name 336.4 AAC;
	rating.summer.continuous 443.0 ;
	geometric_mean_radius 0.666 ft;
	resistance 3.5165;
}

object underground_line_conductor:43 {
	name 1/0 AAC (Conc);
	rating.summer.continuous 142.0 ;
	outer_diameter 1.27;
	conductor_gmr 0.01142 ft;
	conductor_diameter 0.362;
	conductor_resistance 0.88704;
	neutral_gmr 0.0489686771417213 ft;
	neutral_resistance 13.86528;
	neutral_diameter 0.0641;
	neutral_strands 16.0;
	shield_gmr 0.00;
	shield_resistance 0.00;
}

object underground_line_conductor:42 {
	name 2 AL (Conc);
	rating.summer.continuous 112.0 ;
	outer_diameter 1.09;
	conductor_gmr 0.0088 ft;
	conductor_diameter 0.292;
	conductor_resistance 1.38336;
	neutral_gmr 0.0348162687755351 ft;
	neutral_resistance 13.5696;
	neutral_diameter 0.0641;
	neutral_strands 6.0;
	shield_gmr 0.00;
	shield_resistance 0.00;
}

object underground_line_conductor:44 {
	name 4/0 AAC (Conc);
	rating.summer.continuous 214.0 ;
	outer_diameter 1.32;
	conductor_gmr 0.0177 ft;
	conductor_diameter 0.528;
	conductor_resistance 0.433488;
	neutral_gmr 0.0485380344339232 ft;
	neutral_resistance 13.5696;
	neutral_diameter 0.0641;
	neutral_strands 11.0;
	shield_gmr 0.00;
	shield_resistance 0.00;
}

object underground_line_conductor:49 {
	name 1000 AAC (Tape);
	rating.summer.continuous 775.0 ;
	outer_diameter 1.87;
	conductor_gmr 0.0371 ft;
	conductor_diameter 1.15;
	conductor_resistance 0.0222;
	neutral_gmr 0.0732739718442675 ft;
	neutral_resistance 0.05;
	neutral_diameter 0.102;
	neutral_strands 20.0;
	shield_gmr 0.00;
	shield_resistance 0.00;
}

object overhead_line_conductor:33 {
	name 556.5 AAC;
	rating.summer.continuous 605.0 ;
	geometric_mean_radius 0.865 ft;
	resistance 4.5672;
}

object overhead_line_conductor:32 {
	name Busbar;
	rating.summer.continuous 600.0 ;
	geometric_mean_radius 0.2441 ft;
	resistance 0.3059;
}

object line_spacing:566 {
	distance_BN 36.0 in;
}

object line_spacing:568 {
	distance_AB 48.0 in;
	distance_BC 48.0 in;
	distance_AC 48.0 in;
	distance_AN 36.0 in;
	distance_BN 36.0 in;
	distance_CN 36.0 in;
}

object line_spacing:571 {
	distance_AN 36.0 in;
}

object line_spacing:576 {
	distance_AB 48.0 in;
	distance_AN 36.0 in;
	distance_BN 36.0 in;
}

object line_spacing:582 {
	distance_CN 36.0 in;
}

object line_configuration:567 {
	conductor_B overhead_line_conductor:19;
	conductor_N overhead_line_conductor:19;
	spacing line_spacing:566;
}

object line_configuration:569 {
	conductor_A overhead_line_conductor:35;
	conductor_B overhead_line_conductor:35;
	conductor_C overhead_line_conductor:35;
	conductor_N overhead_line_conductor:35;
	spacing line_spacing:568;
}

object line_configuration:570 {
	conductor_A overhead_line_conductor:19;
	conductor_B overhead_line_conductor:19;
	conductor_C overhead_line_conductor:19;
	conductor_N overhead_line_conductor:19;
	spacing line_spacing:568;
}

object line_configuration:572 {
	conductor_A overhead_line_conductor:19;
	conductor_N overhead_line_conductor:19;
	spacing line_spacing:571;
}

object line_configuration:573 {
	conductor_B overhead_line_conductor:14;
	conductor_N overhead_line_conductor:14;
	spacing line_spacing:566;
}

object line_configuration:574 {
	conductor_B overhead_line_conductor:11;
	conductor_N overhead_line_conductor:11;
	spacing line_spacing:566;
}

object line_configuration:575 {
	conductor_A overhead_line_conductor:35;
	conductor_N overhead_line_conductor:35;
	spacing line_spacing:571;
}

object line_configuration:577 {
	conductor_A overhead_line_conductor:35;
	conductor_B overhead_line_conductor:35;
	conductor_N overhead_line_conductor:35;
	spacing line_spacing:576;
}

object line_configuration:578 {
	conductor_A overhead_line_conductor:35;
	conductor_N overhead_line_conductor:35;
	spacing line_spacing:571;
}

object line_configuration:579 {
	conductor_A overhead_line_conductor:11;
	conductor_B overhead_line_conductor:11;
	conductor_C overhead_line_conductor:11;
	conductor_N overhead_line_conductor:11;
	spacing line_spacing:568;
}

object line_configuration:580 {
	conductor_B overhead_line_conductor:20;
	conductor_N overhead_line_conductor:20;
	spacing line_spacing:566;
}

object line_configuration:581 {
	conductor_A overhead_line_conductor:35;
	conductor_B overhead_line_conductor:35;
	conductor_C overhead_line_conductor:35;
	conductor_N overhead_line_conductor:35;
	spacing line_spacing:568;
}

object line_configuration:583 {
	conductor_C overhead_line_conductor:16;
	conductor_N overhead_line_conductor:16;
	spacing line_spacing:582;
}

object line_configuration:584 {
	conductor_A overhead_line_conductor:20;
	conductor_B overhead_line_conductor:20;
	conductor_C overhead_line_conductor:20;
	conductor_N overhead_line_conductor:20;
	spacing line_spacing:568;
}

object line_configuration:585 {
	conductor_A overhead_line_conductor:28;
	conductor_B overhead_line_conductor:28;
	conductor_C overhead_line_conductor:28;
	conductor_N overhead_line_conductor:28;
	spacing line_spacing:568;
}

object line_configuration:586 {