// $Id: R3-12.47-2.glm 1132 2008-11-18 22:36:10Z dchassin $ 
//*********************************************

clock { 
	 timezone MST+7MDT;
	 timestamp '2000-01-01 0:00:00';
}

//*********************************************
// modules
module powerflow;


object fuse:603 {
	name R3-12-47-2_fuse_1;
	phases "ABCN";
	from node:427;
	to node:395;
	current_limit 3000.0;
	status CLOSED;
}

object fuse:604 {
	name R3-12-47-2_fuse_2;
	phases "ABCN";
	from node:395;
	to node:385;
	current_limit 3000.0;
	status CLOSED;
}

object fuse:618 {
	name R3-12-47-2_fuse_3;
	phases "BN";
	from node:417;
	to node:380;
	current_limit 3000.0;
	status CLOSED;
}

object fuse:623 {
	name R3-12-47-2_fuse_4;
	phases "ABCN";
	from node:430;
	to node:384;
	current_limit 3000.0;
	status CLOSED;
}

object fuse:627 {
	name R3-12-47-2_fuse_5;
	phases "ABCN";
	from node:439;
	to node:381;
	current_limit 3000.0;
	status CLOSED;
}

object fuse:630 {
	name R3-12-47-2_fuse_6;
	phases "ABCN";
	from node:479;
	to node:391;
	current_limit 3000.0;
	status CLOSED;
}

object fuse:641 {
	name R3-12-47-2_fuse_7;
	phases "BN";
	from node:415;
	to node:390;
	current_limit 3000.0;
	status CLOSED;
}

object fuse:647 {
	name R3-12-47-2_fuse_8;
	phases "ABCN";
	from node:526;
	to node:394;
	current_limit 3000.0;
	status CLOSED;
}

object fuse:649 {
	name R3-12-47-2_fuse_9;
	phases "ABCN";
	from node:526;
	to node:383;
	current_limit 3000.0;
	status CLOSED;
}

object fuse:654 {
	name R3-12-47-2_fuse_10;
	phases "ABCN";
	from node:484;
	to node:389;
	current_limit 3000.0;
	status CLOSED;
}

object fuse:656 {
	name R3-12-47-2_fuse_11;
	phases "ABCN";
	from node:454;
	to node:382;
	current_limit 3000.0;
	status CLOSED;
}

object fuse:657 {
	name R3-12-47-2_fuse_12;
	phases "ABCN";
	from node:464;
	to node:386;
	current_limit 3000.0;
	status CLOSED;
}

object fuse:675 {
	name R3-12-47-2_fuse_13;
	phases "ABCN";
	from node:462;
	to node:392;
	current_limit 3000.0;
	status CLOSED;
}

object fuse:678 {
	name R3-12-47-2_fuse_14;
	phases "ABCN";
	from node:491;
	to node:393;
	current_limit 3000.0;
	status CLOSED;
}

object fuse:680 {
	name R3-12-47-2_fuse_15;
	phases "ABCN";
	from node:487;
	to node:397;
	current_limit 3000.0;
	status CLOSED;
}

object fuse:745 {
	name R3-12-47-2_fuse_16;
	phases "BN";
	from node:504;
	to node:396;
	current_limit 3000.0;
	status CLOSED;
}

object fuse:801 {
	name R3-12-47-2_fuse_17;
	phases "ABCN";
	from node:461;
	to node:378;
	current_limit 3000.0;
	status CLOSED;
}

object fuse:837 {
	name R3-12-47-2_fuse_18;
	phases "ABCN";
	from node:252;
	to node:387;
	current_limit 3000.0;
	status CLOSED;
}

object fuse:839 {
	name R3-12-47-2_fuse_19;
	phases "ABCN";
	from node:253;
	to node:388;
	current_limit 3000.0;
	status CLOSED;
}

object fuse:850 {
	name R3-12-47-2_fuse_20;
	phases "ABCN";
	from node:251;
	to node:375;
	current_limit 3000.0;
	status CLOSED;
}

object fuse:856 {
	name R3-12-47-2_fuse_21;
	phases "ABCN";
	from node:247;
	to node:376;
	current_limit 3000.0;
	status CLOSED;
}


object line_configuration:567 {
	conductor_B overhead_line_conductor:19;
	conductor_N overhead_line_conductor:19;
	spacing line_spacing:566;
}

object line_configuration:569 {
	conductor_A overhead_line_conductor:35;
	conductor_B overhead_line_conductor:35;
	conductor_C overhead_line_conductor:35;
	conductor_N overhead_line_conductor:35;
	spacing line_spacing:568;
}

object line_configuration:570 {
	conductor_A overhead_line_conductor:19;
	conductor_B overhead_line_conductor:19;
	conductor_C overhead_line_conductor:19;
	conductor_N overhead_line_conductor:19;
	spacing line_spacing:568;
}

object line_configuration:572 {
	conductor_A overhead_line_conductor:19;
	conductor_N overhead_line_conductor:19;
	spacing line_spacing:571;
}

object line_configuration:573 {
	conductor_B overhead_line_conductor:14;
	conductor_N overhead_line_conductor:14;
	spacing line_spacing:566;
}

object line_configuration:574 {
	conductor_B overhead_line_conductor:11;
	conductor_N overhead_line_conductor:11;
	spacing line_spacing:566;
}

object line_configuration:575 {
	conductor_A overhead_line_conductor:35;
	conductor_N overhead_line_conductor:35;
	spacing line_spacing:571;
}

object line_configuration:577 {
	conductor_A overhead_line_conductor:35;
	conductor_B overhead_line_conductor:35;
	conductor_N overhead_line_conductor:35;
	spacing line_spacing:576;
}

object line_configuration:578 {
	conductor_A overhead_line_conductor:35;
	conductor_N overhead_line_conductor:35;
	spacing line_spacing:571;
}

object line_configuration:579 {
	conductor_A overhead_line_conductor:11;
	conductor_B overhead_line_conductor:11;
	conductor_C overhead_line_conductor:11;
	conductor_N overhead_line_conductor:11;
	spacing line_spacing:568;
}

object line_configuration:580 {
	conductor_B overhead_line_conductor:20;
	conductor_N overhead_line_conductor:20;
	spacing line_spacing:566;
}

object line_configuration:581 {
	conductor_A overhead_line_conductor:35;
	conductor_B overhead_line_conductor:35;
	conductor_C overhead_line_conductor:35;
	conductor_N overhead_line_conductor:35;
	spacing line_spacing:568;
}

object line_configuration:583 {
	conductor_C overhead_line_conductor:16;
	conductor_N overhead_line_conductor:16;
	spacing line_spacing:582;
}

object line_configuration:584 {
	conductor_A overhead_line_conductor:20;
	conductor_B overhead_line_conductor:20;
	conductor_C overhead_line_conductor:20;
	conductor_N overhead_line_conductor:20;
	spacing line_spacing:568;
}

object line_configuration:585 {
	conductor_A overhead_line_conductor:28;
	conductor_B overhead_line_conductor:28;
	conductor_C overhead_line_conductor:28;
	conductor_N overhead_line_conductor:28;
	spacing line_spacing:568;
}

object line_configuration:586 {
	conductor_A overhead_line_conductor:27;
	conductor_B overhead_line_conductor:27;
	conductor_C overhead_line_conductor:27;
	conductor_N overhead_line_conductor:27;
	spacing line_spacing:568;
}

object line_configuration:587 {
	conductor_A overhead_line_conductor:35;
	conductor_B overhead_line_conductor:35;
	conductor_C overhead_line_conductor:35;
	conductor_N overhead_line_conductor:35;
	spacing line_spacing:568;
}

object line_configuration:588 {
	conductor_C underground_line_conductor:43;
	conductor_N underground_line_conductor:43;
	spacing line_spacing:582;
}

object line_configuration:589 {
	conductor_A underground_line_conductor:43;
	conductor_B underground_line_conductor:43;
	conductor_C underground_line_conductor:43;
	conductor_N underground_line_conductor:43;
	spacing line_spacing:568;
}

object line_configuration:590 {
	conductor_A underground_line_conductor:43;
	conductor_N underground_line_conductor:43;
	spacing line_spacing:571;
}

object line_configuration:591 {
	conductor_A underground_line_conductor:42;
	conductor_B underground_line_conductor:42;
	conductor_C underground_line_conductor:42;
	conductor_N underground_line_conductor:42;
	spacing line_spacing:568;
}

object line_configuration:592 {
	conductor_A underground_line_conductor:44;
	conductor_B underground_line_conductor:44;
	conductor_C underground_line_conductor:44;
	conductor_N underground_line_conductor:44;
	spacing line_spacing:568;
}

object line_configuration:593 {
	conductor_A underground_line_conductor:49;
	conductor_B underground_line_conductor:49;
	conductor_C underground_line_conductor:49;
	conductor_N underground_line_conductor:49;
	spacing line_spacing:568;
}

object line_configuration:594 {
	conductor_B underground_line_conductor:43;
	conductor_N underground_line_conductor:43;
	spacing line_spacing:566;
}

object line_configuration:595 {
	conductor_C underground_line_conductor:42;
	conductor_N underground_line_conductor:42;
	spacing line_spacing:582;
}

object line_configuration:596 {
	conductor_A overhead_line_conductor:33;
	conductor_B overhead_line_conductor:33;
	conductor_C overhead_line_conductor:33;
	conductor_N overhead_line_conductor:33;
	spacing line_spacing:568;
}

object line_configuration:597 {
	conductor_B overhead_line_conductor:33;
	conductor_N overhead_line_conductor:33;
	spacing line_spacing:566;
}


object line_spacing:566 {
	distance_BN 36.0 in;
}

object line_spacing:568 {
	distance_AB 48.0 in;
	distance_BC 48.0 in;
	distance_AC 48.0 in;
	distance_AN 36.0 in;
	distance_BN 36.0 in;
	distance_CN 36.0 in;
}

object line_spacing:571 {
	distance_AN 36.0 in;
}

object line_spacing:576 {
	distance_AB 48.0 in;
	distance_AN 36.0 in;
	distance_BN 36.0 in;
}

object line_spacing:582 {
	distance_CN 36.0 in;
}


object load {
	name R3-12-47-2_load_1;
	parent R3-12-47-2_meter_1;
	phases "ABCN";
	nominal_voltage 7199.558;
	voltage_A 7199.558+0.0j;
	voltage_B -3599.779-6235.000j;
	voltage_C -3599.779+6235.000j;
	constant_power_A 10260.376+3061.254j;
	constant_power_B 10725.372+3178.227j;
	constant_power_C 10432.045+3103.777j;
	load_class "C";
}

object load {
	name R3-12-47-2_load_2;
	parent R3-12-47-2_meter_2;
	phases "ABCN";
	nominal_voltage 7199.558;
	voltage_A 7199.558+0.0j;
	voltage_B -3599.779-6235.000j;
	voltage_C -3599.779+6235.000j;
	constant_power_A 8208.301+2449.003j;
	constant_power_B 8580.297+2542.582j;
	constant_power_C 0.000+0.000j;
	load_class "C";
}

object load {
	name R3-12-47-2_load_3;
	parent R3-12-47-2_meter_3;
	phases "ABCN";
	nominal_voltage 7199.558;
	voltage_A 7199.558+0.0j;
	voltage_B -3599.779-6235.000j;
	voltage_C -3599.779+6235.000j;
	constant_power_A 8208.301+2449.003j;
	constant_power_B 8580.297+2542.582j;
	constant_power_C 0.000+0.000j;
	load_class "C";
}

object load {
	name R3-12-47-2_load_4;
	parent R3-12-47-2_meter_4;
	phases "ABCN";
	nominal_voltage 7199.558;
	voltage_A 7199.558+0.0j;
	voltage_B -3599.779-6235.000j;
	voltage_C -3599.779+6235.000j;
	constant_power_A 6156.226+1836.752j;
	constant_power_B 6435.223+1906.936j;
	constant_power_C 6259.227+1862.266j;
	load_class "C";
}

object load {
	name R3-12-47-2_load_5;
	parent R3-12-47-2_meter_5;
	phases "ABCN";
	nominal_voltage 7199.558;
	voltage_A 7199.558+0.0j;
	voltage_B -3599.779-6235.000j;
	voltage_C -3599.779+6235.000j;
	constant_power_A 20520.752+6122.508j;
	constant_power_B 21450.743+6356.454j;
	constant_power_C 20864.089+6207.553j;
	load_class "C";
}

object load {
	name R3-12-47-2_load_6;
	parent R3-12-47-2_meter_6;
	phases "ABCN";
	nominal_voltage 7199.558;
	voltage_A 7199.558+0.0j;
	voltage_B -3599.779-6235.000j;
	voltage_C -3599.779+6235.000j;
	constant_power_A 20520.752+6122.508j;
	constant_power_B 21450.743+6356.454j;
	constant_power_C 20864.089+6207.553j;
	load_class "C";
}

object load {
	name R3-12-47-2_load_7;
	parent R3-12-47-2_meter_7;
	phases "ABCN";
	nominal_voltage 7199.558;
	voltage_A 7199.558+0.0j;
	voltage_B -3599.779-6235.000j;
	voltage_C -3599.779+6235.000j;
	constant_power_A 10260.376+3061.254j;
	constant_power_B 10725.372+3178.227j;
	constant_power_C 10432.045+3103.777j;
	load_class "C";
}

object load {
	name R3-12-47-2_load_8;
	parent R3-12-47-2_meter_8;
	phases "ABCN";
	nominal_voltage 7199.558;
	voltage_A 7199.558+0.0j;
	voltage_B -3599.779-6235.000j;
	voltage_C -3599.779+6235.000j;
	constant_power_A 20520.752+6122.508j;
	constant_power_B 21450.743+6356.454j;
	constant_power_C 20864.089+6207.553j;
	load_class "C";
}

object load {
	name R3-12-47-2_load_9;
	parent R3-12-47-2_meter_9;
	phases "ABCN";
	nominal_voltage 7199.558;
	voltage_A 7199.558+0.0j;
	voltage_B -3599.779-6235.000j;
	voltage_C -3599.779+6235.000j;
	constant_power_A 6156.226+1836.752j;
	constant_power_B 6435.223+1906.936j;
	constant_power_C 6259.227+1862.266j;
	load_class "C";
}

object load {
	name R3-12-47-2_load_10;
	parent R3-12-47-2_meter_10;
	phases "ABCN";
	nominal_voltage 7199.558;
	voltage_A 7199.558+0.0j;
	voltage_B -3599.779-6235.000j;
	voltage_C -3599.779+6235.000j;
	constant_power_A 6156.226+1836.752j;
	constant_power_B 6435.223+1906.936j;
	constant_power_C 6259.227+1862.266j;
	load_class "C";
}

object load {
	name R3-12-47-2_load_11;
	parent R3-12-47-2_meter_11;
	phases "ABCN";
	nominal_voltage 7199.558;
	voltage_A 7199.558+0.0j;
	voltage_B -3599.779-6235.000j;
	voltage_C -3599.779+6235.000j;
	constant_power_A 20520.752+6122.508j;
	constant_power_B 21450.743+6356.454j;
	constant_power_C 20864.089+6207.553j;
	load_class "C";
}

object load {
	name R3-12-47-2_load_12;
	parent R3-12-47-2_meter_12;
	phases "ABCN";
	nominal_voltage 7199.558;
	voltage_A 7199.558+0.0j;
	voltage_B -3599.779-6235.000j;
	voltage_C -3599.779+6235.000j;
	constant_power_A 41041.505+12245.015j;
	constant_power_B 42901.487+12712.909j;
	constant_power_C 41728.179+12415.106j;
	load_class "C";
}

object load {
	name R3-12-47-2_load_13;
	parent R3-12-47-2_meter_13;
	phases "ABCN";
	nominal_voltage 7199.558;
	voltage_A 7199.558+0.0j;
	voltage_B -3599.779-6235.000j;
	voltage_C -3599.779+6235.000j;
	constant_power_A 136668.210+40775.901j;
	constant_power_B 142861.952+42333.986j;
	constant_power_C 138954.835+41342.304j;
	load_class "C";
}

object load {
	name R3-12-47-2_load_14;
	parent R3-12-47-2_meter_14;
	phases "ABCN";
	nominal_voltage 7199.558;
	voltage_A 7199.558+0.0j;
	voltage_B -3599.779-6235.000j;
	voltage_C -3599.779+6235.000j;
	constant_power_A 41041.505+12245.015j;
	constant_power_B 42901.487+12712.909j;
	constant_power_C 41728.179+12415.106j;
	load_class "I";
}

object load {
	name R3-12-47-2_load_15;
	parent R3-12-47-2_meter_15;
	phases "ABCN";
	nominal_voltage 7199.558;
	voltage_A 7199.558+0.0j;
	voltage_B -3599.779-6235.000j;
	voltage_C -3599.779+6235.000j;
	constant_power_A 10260.376+3061.254j;
	constant_power_B 10725.372+3178.227j;
	constant_power_C 10432.045+3103.777j;
	load_class "C";
}

object load {
	name R3-12-47-2_load_16;
	parent R3-12-47-2_meter_16;
	phases "ABCN";
	nominal_voltage 7199.558;
	voltage_A 7199.558+0.0j;
	voltage_B -3599.779-6235.000j;
	voltage_C -3599.779+6235.000j;
	constant_power_A 10260.376+3061.254j;
	constant_power_B 10725.372+3178.227j;
	constant_power_C 10432.045+3103.777j;
	load_class "C";
}

object load {
	name R3-12-47-2_load_17;
	parent R3-12-47-2_meter_17;
	phases "ABCN";
	nominal_voltage 7199.558;
	voltage_A 7199.558+0.0j;
	voltage_B -3599.779-6235.000j;
	voltage_C -3599.779+6235.000j;
	constant_power_A 20520.752+6122.508j;
	constant_power_B 21450.743+6356.454j;
	constant_power_C 20864.089+6207.553j;
	load_class "C";
}

object load {
	name R3-12-47-2_load_18;
	parent R3-12-47-2_meter_18;
	phases "ABCN";
	nominal_voltage 7199.558;
	voltage_A 7199.558+0.0j;
	voltage_B -3599.779-6235.000j;
	voltage_C -3599.779+6235.000j;
	constant_power_A 10260.376+3061.254j;
	constant_power_B 10725.372+3178.227j;
	constant_power_C 10432.045+3103.777j;
	load_class "C";
}

object load {
	name R3-12-47-2_load_19;
	parent R3-12-47-2_meter_19;
	phases "ABCN";
	nominal_voltage 7199.558;
	voltage_A 7199.558+0.0j;
	voltage_B -3599.779-6235.000j;
	voltage_C -3599.779+6235.000j;
	constant_power_A 20520.752+6122.508j;
	constant_power_B 21450.743+6356.454j;
	constant_power_C 20864.089+6207.553j;
	load_class "C";
}

object load {
	name R3-12-47-2_load_20;
	parent R3-12-47-2_meter_20;
	phases "ABCN";
	nominal_voltage 7199.558;
	voltage_A 7199.558+0.0j;
	voltage_B -3599.779-6235.000j;
	voltage_C -3599.779+6235.000j;
	constant_power_A 20520.752+6122.508j;
	constant_power_B 21450.743+6356.454j;
	constant_power_C 20864.089+6207.553j;
	load_class "C";
}

object load {
	name R3-12-47-2_load_21;
	parent R3-12-47-2_meter_21;
	phases "ABCN";
	nominal_voltage 7199.558;
	voltage_A 7199.558+0.0j;
	voltage_B -3599.779-6235.000j;
	voltage_C -3599.779+6235.000j;
	constant_power_A 6156.226+1836.752j;
	constant_power_B 6435.223+1906.936j;
	constant_power_C 6259.227+1862.266j;
	load_class "C";
}

object load {
	name R3-12-47-2_load_22;
	parent R3-12-47-2_meter_22;
	phases "ABCN";
	nominal_voltage 7199.558;
	voltage_A 7199.558+0.0j;
	voltage_B -3599.779-6235.000j;
	voltage_C -3599.779+6235.000j;
	constant_power_A 68402.508+20408.359j;
	constant_power_B 71502.478+21188.181j;
	constant_power_C 69546.965+20691.844j;
	load_class "I";
}

object load {
	name R3-12-47-2_load_23;
	parent R3-12-47-2_meter_23;
	phases "ABCN";
	nominal_voltage 7199.558;
	voltage_A 7199.558+0.0j;
	voltage_B -3599.779-6235.000j;
	voltage_C -3599.779+6235.000j;
	constant_power_A 6200.000+1800.000j;
	constant_power_B 6400.000+1900.000j;
	constant_power_C 6300.000+1900.000j;
	load_class "I";
}

object load {
	name R3-12-47-2_load_24;
	parent R3-12-47-2_meter_24;
	phases "ABCN";
	nominal_voltage 7199.558;
	voltage_A 7199.558+0.0j;
	voltage_B -3599.779-6235.000j;
	voltage_C -3599.779+6235.000j;
	constant_power_A 41041.505+12245.015j;
	constant_power_B 42901.487+12712.909j;
	constant_power_C 41728.179+12415.106j;
	load_class "C";
}

object load {
	name R3-12-47-2_load_25;
	parent R3-12-47-2_meter_25;
	phases "ABCN";
	nominal_voltage 7199.558;
	voltage_A 7199.558+0.0j;
	voltage_B -3599.779-6235.000j;
	voltage_C -3599.779+6235.000j;
	constant_power_A 20520.752+6122.508j;
	constant_power_B 21450.743+6356.454j;
	constant_power_C 20864.089+6207.553j;
	load_class "C";
}

object load {
	name R3-12-47-2_load_26;
	parent R3-12-47-2_meter_26;
	phases "ABCN";
	nominal_voltage 7199.558;
	voltage_A 7199.558+0.0j;
	voltage_B -3599.779-6235.000j;
	voltage_C -3599.779+6235.000j;
	constant_power_A 6156.226+1836.752j;
	constant_power_B 6435.223+1906.936j;
	constant_power_C 6259.227+1862.266j;
	load_class "C";
}

object load {
	name R3-12-47-2_load_27;
	parent R3-12-47-2_meter_27;
	phases "ABCN";
	nominal_voltage 7199.558;
	voltage_A 7199.558+0.0j;
	voltage_B -3599.779-6235.000j;
	voltage_C -3599.779+6235.000j;
	constant_power_A 10260.376+3061.254j;
	constant_power_B 10725.372+3178.227j;
	constant_power_C 10432.045+3103.777j;
	load_class "C";
}

object load {
	name R3-12-47-2_load_28;
	parent R3-12-47-2_meter_28;
	phases "ABCN";
	nominal_voltage 7199.558;
	voltage_A 7199.558+0.0j;
	voltage_B -3599.779-6235.000j;
	voltage_C -3599.779+6235.000j;
	constant_power_A 20520.752+6122.508j;
	constant_power_B 21450.743+6356.454j;
	constant_power_C 20864.089+6207.553j;
	load_class "C";
}

object load {
	name R3-12-47-2_load_29;
	parent R3-12-47-2_meter_29;
	phases "ABCN";
	nominal_voltage 7199.558;
	voltage_A 7199.558+0.0j;
	voltage_B -3599.779-6235.000j;
	voltage_C -3599.779+6235.000j;
	constant_power_A 6156.226+1836.752j;
	constant_power_B 6435.223+1906.936j;
	constant_power_C 6259.227+1862.266j;
	load_class "C";
}

object load {
	name R3-12-47-2_load_30;
	parent R3-12-47-2_meter_30;
	phases "ABCN";
	nominal_voltage 7199.558;
	voltage_A 7199.558+0.0j;
	voltage_B -3599.779-6235.000j;
	voltage_C -3599.779+6235.000j;
	constant_power_A 68402.508+20408.359j;
	constant_power_B 71502.478+21188.181j;
	constant_power_C 69546.965+20691.844j;
	load_class "C";
}

object load {
	name R3-12-47-2_load_31;
	parent R3-12-47-2_meter_31;
	phases "ABCN";
	nominal_voltage 7199.558;
	voltage_A 7199.558+0.0j;
	voltage_B -3599.779-6235.000j;
	voltage_C -3599.779+6235.000j;
	constant_power_A 68402.508+20408.359j;
	constant_power_B 71502.478+21188.181j;
	constant_power_C 69546.965+20691.844j;
	load_class "C";
}

object load {
	name R3-12-47-2_load_32;
	parent R3-12-47-2_meter_32;
	phases "ABCN";
	nominal_voltage 7199.558;
	voltage_A 7199.558+0.0j;
	voltage_B -3599.779-6235.000j;
	voltage_C -3599.779+6235.000j;
	constant_power_A 205207.523+61225.077j;
	constant_power_B 214507.435+63564.543j;
	constant_power_C 208640.894+62075.532j;
	load_class "C";
}

object load {
	name R3-12-47-2_load_33;
	parent R3-12-47-2_meter_33;
	phases "ABCN";
	nominal_voltage 7199.558;
	voltage_A 7199.558+0.0j;
	voltage_B -3599.779-6235.000j;
	voltage_C -3599.779+6235.000j;
	constant_power_A 205207.523+61225.077j;
	constant_power_B 214507.435+63564.543j;
	constant_power_C 208640.894+62075.532j;
	load_class "C";
}

object load {
	name R3-12-47-2_load_34;
	parent R3-12-47-2_meter_34;
	phases "ABCN";
	nominal_voltage 7199.558;
	voltage_A 7199.558+0.0j;
	voltage_B -3599.779-6235.000j;
	voltage_C -3599.779+6235.000j;
	constant_power_A 10260.376+3061.254j;
	constant_power_B 10725.372+3178.227j;
	constant_power_C 10432.045+3103.777j;
	load_class "C";
}

object load {
	name R3-12-47-2_load_35;
	parent R3-12-47-2_meter_35;
	phases "ABCN";
	nominal_voltage 7199.558;
	voltage_A 7199.558+0.0j;
	voltage_B -3599.779-6235.000j;
	voltage_C -3599.779+6235.000j;
	constant_power_A 102603.762+30612.538j;
	constant_power_B 107253.717+31782.272j;
	constant_power_C 104320.447+31037.766j;
	load_class "C";
}

object load {
	name R3-12-47-2_load_36;
	parent R3-12-47-2_meter_36;
	phases "ABCN";
	nominal_voltage 7199.558;
	voltage_A 7199.558+0.0j;
	voltage_B -3599.779-6235.000j;
	voltage_C -3599.779+6235.000j;
	constant_power_A 68402.508+20408.359j;
	constant_power_B 71502.478+21188.181j;
	constant_power_C 69546.965+20691.844j;
	load_class "C";
}

object load {
	name R3-12-47-2_load_37;
	parent R3-12-47-2_meter_37;
	phases "ABCN";
	nominal_voltage 7199.558;
	voltage_A 7199.558+0.0j;
	voltage_B -3599.779-6235.000j;
	voltage_C -3599.779+6235.000j;
	constant_power_A 10260.376+3061.254j;
	constant_power_B 10725.372+3178.227j;
	constant_power_C 10432.045+3103.777j;
	load_class "C";
}


object meter:137 {
	name R3-12-47-2_meter_1;
	phases "ABCN";
	nominal_voltage 7199.558;
	voltage_A 7199.558+0.0j;
	voltage_B -3599.779-6235.000j;
	voltage_C -3599.779+6235.000j;
}

object meter:139 {
	name R3-12-47-2_meter_2;
	phases "ABCN";
	nominal_voltage 7199.558;
	voltage_A 7199.558+0.0j;
	voltage_B -3599.779-6235.000j;
	voltage_C -3599.779+6235.000j;
}

object meter:144 {
	name R3-12-47-2_meter_3;
	phases "ABCN";
	nominal_voltage 7199.558;
	voltage_A 7199.558+0.0j;
	voltage_B -3599.779-6235.000j;
	voltage_C -3599.779+6235.000j;
}

object meter:149 {
	name R3-12-47-2_meter_4;
	phases "ABCN";
	nominal_voltage 7199.558;
	voltage_A 7199.558+0.0j;
	voltage_B -3599.779-6235.000j;
	voltage_C -3599.779+6235.000j;
}

object meter:151 {
	name R3-12-47-2_meter_5;
	phases "ABCN";
	nominal_voltage 7199.558;
	voltage_A 7199.558+0.0j;
	voltage_B -3599.779-6235.000j;
	voltage_C -3599.779+6235.000j;
}

object meter:156 {
	name R3-12-47-2_meter_6;
	phases "ABCN";
	nominal_voltage 7199.558;
	voltage_A 7199.558+0.0j;
	voltage_B -3599.779-6235.000j;
	voltage_C -3599.779+6235.000j;
}

object meter:158 {
	name R3-12-47-2_meter_7;
	phases "ABCN";
	nominal_voltage 7199.558;
	voltage_A 7199.558+0.0j;
	voltage_B -3599.779-6235.000j;
	voltage_C -3599.779+6235.000j;
}

object meter:160 {
	name R3-12-47-2_meter_8;
	phases "ABCN";
	nominal_voltage 7199.558;
	voltage_A 7199.558+0.0j;
	voltage_B -3599.779-6235.000j;
	voltage_C -3599.779+6235.000j;
}

object meter:162 {
	name R3-12-47-2_meter_9;
	phases "ABCN";
	nominal_voltage 7199.558;
	voltage_A 7199.558+0.0j;
	voltage_B -3599.779-6235.000j;
	voltage_C -3599.779+6235.000j;
}

object meter:167 {
	name R3-12-47-2_meter_10;
	phases "ABCN";
	nominal_voltage 7199.558;
	voltage_A 7199.558+0.0j;
	voltage_B -3599.779-6235.000j;
	voltage_C -3599.779+6235.000j;
}

object meter:169 {
	name R3-12-47-2_meter_11;
	phases "ABCN";
	nominal_voltage 7199.558;
	voltage_A 7199.558+0.0j;
	voltage_B -3599.779-6235.000j;
	voltage_C -3599.779+6235.000j;
}

object meter:174 {
	name R3-12-47-2_meter_12;
	phases "ABCN";
	nominal_voltage 7199.558;
	voltage_A 7199.558+0.0j;
	voltage_B -3599.779-6235.000j;
	voltage_C -3599.779+6235.000j;
}

object meter:176 {
	name R3-12-47-2_meter_13;
	phases "ABCN";
	nominal_voltage 7199.558;
	voltage_A 7199.558+0.0j;
	voltage_B -3599.779-6235.000j;
	voltage_C -3599.779+6235.000j;
}

object meter:178 {
	name R3-12-47-2_meter_14;
	phases "ABCN";
	nominal_voltage 7199.558;
	voltage_A 7199.558+0.0j;
	voltage_B -3599.779-6235.000j;
	voltage_C -3599.779+6235.000j;
}

object meter:183 {
	name R3-12-47-2_meter_15;
	phases "ABCN";
	nominal_voltage 7199.558;
	voltage_A 7199.558+0.0j;
	voltage_B -3599.779-6235.000j;
	voltage_C -3599.779+6235.000j;
}

object meter:185 {
	name R3-12-47-2_meter_16;
	phases "ABCN";
	nominal_voltage 7199.558;
	voltage_A 7199.558+0.0j;
	voltage_B -3599.779-6235.000j;
	voltage_C -3599.779+6235.000j;
}

object meter:190 {
	name R3-12-47-2_meter_17;
	phases "ABCN";
	nominal_voltage 7199.558;
	voltage_A 7199.558+0.0j;
	voltage_B -3599.779-6235.000j;
	voltage_C -3599.779+6235.000j;
}

object meter:192 {
	name R3-12-47-2_meter_18;
	phases "ABCN";
	nominal_voltage 7199.558;
	voltage_A 7199.558+0.0j;
	voltage_B -3599.779-6235.000j;
	voltage_C -3599.779+6235.000j;
}

object meter:197 {
	name R3-12-47-2_meter_19;
	phases "ABCN";
	nominal_voltage 7199.558;
	voltage_A 7199.558+0.0j;
	voltage_B -3599.779-6235.000j;
	voltage_C -3599.779+6235.000j;
}

object meter:202 {
	name R3-12-47-2_meter_20;
	phases "ABCN";
	nominal_voltage 7199.558;
	voltage_A 7199.558+0.0j;
	voltage_B -3599.779-6235.000j;
	voltage_C -3599.779+6235.000j;
}

object meter:207 {
	name R3-12-47-2_meter_21;
	phases "ABCN";
	nominal_voltage 7199.558;
	voltage_A 7199.558+0.0j;
	voltage_B -3599.779-6235.000j;
	voltage_C -3599.779+6235.000j;
}

object meter:212 {
	name R3-12-47-2_meter_22;
	phases "ABCN";
	nominal_voltage 7199.558;
	voltage_A 7199.558+0.0j;
	voltage_B -3599.779-6235.000j;
	voltage_C -3599.779+6235.000j;
}

object meter:214 {
	name R3-12-47-2_meter_23;
	phases "ABCN";
	nominal_voltage 7199.558;
	voltage_A 7199.558+0.0j;
	voltage_B -3599.779-6235.000j;
	voltage_C -3599.779+6235.000j;
}

object meter:216 {
	name R3-12-47-2_meter_24;
	phases "ABCN";
	nominal_voltage 7199.558;
	voltage_A 7199.558+0.0j;
	voltage_B -3599.779-6235.000j;
	voltage_C -3599.779+6235.000j;
}

object meter:221 {
	name R3-12-47-2_meter_25;
	phases "ABCN";
	nominal_voltage 7199.558;
	voltage_A 7199.558+0.0j;
	voltage_B -3599.779-6235.000j;
	voltage_C -3599.779+6235.000j;
}

object meter:223 {
	name R3-12-47-2_meter_26;
	phases "ABCN";
	nominal_voltage 7199.558;
	voltage_A 7199.558+0.0j;
	voltage_B -3599.779-6235.000j;
	voltage_C -3599.779+6235.000j;
}

object meter:225 {
	name R3-12-47-2_meter_27;
	phases "ABCN";
	nominal_voltage 7199.558;
	voltage_A 7199.558+0.0j;
	voltage_B -3599.779-6235.000j;
	voltage_C -3599.779+6235.000j;
}

object meter:227 {
	name R3-12-47-2_meter_28;
	phases "ABCN";
	nominal_voltage 7199.558;
	voltage_A 7199.558+0.0j;
	voltage_B -3599.779-6235.000j;
	voltage_C -3599.779+6235.000j;
}

object meter:229 {
	name R3-12-47-2_meter_29;
	phases "ABCN";
	nominal_voltage 7199.558;
	voltage_A 7199.558+0.0j;
	voltage_B -3599.779-6235.000j;
	voltage_C -3599.779+6235.000j;
}

object meter:231 {
	name R3-12-47-2_meter_30;
	phases "ABCN";
	nominal_voltage 7199.558;
	voltage_A 7199.558+0.0j;
	voltage_B -3599.779-6235.000j;
	voltage_C -3599.779+6235.000j;
}

object meter:233 {
	name R3-12-47-2_meter_31;
	phases "ABCN";
	nominal_voltage 7199.558;
	voltage_A 7199.558+0.0j;
	voltage_B -3599.779-6235.000j;
	voltage_C -3599.779+6235.000j;
}

object meter:235 {
	name R3-12-47-2_meter_32;
	phases "ABCN";
	nominal_voltage 7199.558;
	voltage_A 7199.558+0.0j;
	voltage_B -3599.779-6235.000j;
	voltage_C -3599.779+6235.000j;
}

object meter:237 {
	name R3-12-47-2_meter_33;
	phases "ABCN";
	nominal_voltage 7199.558;
	voltage_A 7199.558+0.0j;
	voltage_B -3599.779-6235.000j;
	voltage_C -3599.779+6235.000j;
}

object meter:239 {
	name R3-12-47-2_meter_34;
	phases "ABCN";
	nominal_voltage 7199.558;
	voltage_A 7199.558+0.0j;
	voltage_B -3599.779-6235.000j;
	voltage_C -3599.779+6235.000j;
}

object meter:241 {
	name R3-12-47-2_meter_35;
	phases "ABCN";
	nominal_voltage 7199.558;
	voltage_A 7199.558+0.0j;
	voltage_B -3599.779-6235.000j;
	voltage_C -3599.779+6235.000j;
}

object meter:243 {
	name R3-12-47-2_meter_36;
	phases "ABCN";
	nominal_voltage 7199.558;
	voltage_A 7199.558+0.0j;
	voltage_B -3599.779-6235.000j;
	voltage_C -3599.779+6235.000j;
}

object meter:245 {
	name R3-12-47-2_meter_37;
	phases "ABCN";
	nominal_voltage 7199.558;
	voltage_A 7199.558+0.0j;
	voltage_B -3599.779-6235.000j;
	voltage_C -3599.779+6235.000j;
}

// Meter at feeder
object meter:246 {
	name R3-12-47-2_meter_38;
	phases "ABCN";
	nominal_voltage 7199.558;
	voltage_A 7199.558+0.0j;
	voltage_B -3599.779-6235.000j;
	voltage_C -3599.779+6235.000j;
}


object node:247 {
	name R3-12-47-2_node_1;
	phases "ABCN";
	nominal_voltage 7199.558;
	voltage_A 7199.558+0.0j;
	voltage_B -3599.779-6235.000j;
	voltage_C -3599.779+6235.000j;
}

object node:248 {
	name R3-12-47-2_node_2;
	phases "BN";
	nominal_voltage 7199.558;
	voltage_B -3599.779-6235.000j;
}

object node:249 {
	name R3-12-47-2_node_3;
	phases "ABCN";
	nominal_voltage 7199.558;
	voltage_A 7199.558+0.0j;
	voltage_B -3599.779-6235.000j;
	voltage_C -3599.779+6235.000j;
}

object node:250 {
	name R3-12-47-2_node_4;
	phases "ABCN";
	nominal_voltage 7199.558;
	voltage_A 7199.558+0.0j;
	voltage_B -3599.779-6235.000j;
	voltage_C -3599.779+6235.000j;
}

object node:251 {
	name R3-12-47-2_node_5;
	phases "ABCN";