//*********************************************
// $Id: R3-12.47-3.glm 1132 2008-11-18 22:36:10Z dchassin $ 
//*********************************************

clock { 
	 timezone MST+7MDT;
}	 timestamp '2000-01-01 0:00:00';


//*********************************************
// modules
module powerflow;


object triplex_line_conductor: {
	name 1/0 AA triplex;
	resistance 0.97;
	geometric_mean_radius 0.0111;
}

object triplex_line_configuration:1 {
	conductor_1 1/0 AA triplex;
	conductor_2 1/0 AA triplex;
	conductor_N 1/0 AA triplex;
	insulation_thickness 0.08;
	diameter 0.368;
}

object transformer:113  {
	phases "BS";
	from 05211002;
	to 05211002_RB_M;
	configuration transformer_configuration:65;
}

object triplex_meter:114 {
	name 05211002_RB_M;
	phases "BS";
	nominal_voltage 120;
	voltage_1 -60.000-103.923j;
	voltage_2 -60.000-103.923j;
	voltage_N 0;
}

object triplex_node:115 {
	name 05211002_RB_TX;
	parent 05211002_RB_M;
	phases BS;
	nominal_voltage 120;
	latitude 48N58'24.539";
	longitude 119W56'28.597";
	power_1 1.37600631872182+0.463126856065295j;
	voltage_1 -60.000-103.923j;
	voltage_2 -60.000-103.923j;
	voltage_N 0;
}

object transformer:116  {
	phases "BS";
	from 05211005;
	to 05211005_RB_M;
	configuration transformer_configuration:66;
}

object triplex_meter:117 {
	name 05211005_RB_M;
	phases "BS";
	nominal_voltage 120;
	voltage_1 -60.000-103.923j;
	voltage_2 -60.000-103.923j;
	voltage_N 0;
}

object triplex_node:118 {
	name 05211005_RB_TX;
	parent 05211005_RB_M;
	phases BS;
	nominal_voltage 120;
	latitude 48N58'32.078";
	longitude 119W56'30.149";
	power_1 3.47837544255007+1.1707279690542j;
	voltage_1 -60.000-103.923j;
	voltage_2 -60.000-103.923j;
	voltage_N 0;
}

object transformer:119  {
	phases "AS";
	from 0521101;
	to 0521101_RA_M;
	configuration transformer_configuration:51;
}

object triplex_meter:120 {
	name 0521101_RA_M;
	phases "AS";
	nominal_voltage 120;
	voltage_1 120;
	voltage_2 120;
	voltage_N 0;
}

object triplex_node:121 {
	name 0521101_RA_TX;
	parent 0521101_RA_M;
	phases AS;
	nominal_voltage 120;
	latitude 48N56'15.897";
	longitude 119W56'42.749";
	power_1 2.08923261559387+0.703179716316893j;
	voltage_1 120;
	voltage_2 120;
	voltage_N 0;
}

object transformer:122  {
	phases "BS";
	from 0521101;
	to 0521101_RB_M;
	configuration transformer_configuration:67;
}

object triplex_meter:123 {
	name 0521101_RB_M;
	phases "BS";
	nominal_voltage 120;
	voltage_1 -60.000-103.923j;
	voltage_2 -60.000-103.923j;
	voltage_N 0;
}

object triplex_node:124 {
	name 0521101_RB_TX;
	parent 0521101_RB_M;
	phases BS;
	nominal_voltage 120;
	latitude 48N56'15.897";
	longitude 119W56'42.749";
	power_1 2.08923261559387+0.703179716316893j;
	voltage_1 -60.000-103.923j;
	voltage_2 -60.000-103.923j;
	voltage_N 0;
}

object transformer:125  {
	phases "CS";
	from 0521101;
	to 0521101_RC_M;
	configuration transformer_configuration:78;
}

object triplex_meter:126 {
	name 0521101_RC_M;
	phases "CS";
	nominal_voltage 120;
	voltage_1 -60.000+103.923j;
	voltage_2 -60.000+103.923j;
	voltage_N 0;
}

object triplex_node:127 {
	name 0521101_RC_TX;
	parent 0521101_RC_M;
	phases CS;
	nominal_voltage 120;
	latitude 48N56'15.897";
	longitude 119W56'42.749";
	power_1 0+0j;
	voltage_1 -60.000+103.923j;
	voltage_2 -60.000+103.923j;
	voltage_N 0;
}

object transformer:128  {
	phases "BS";
	from 05211015;
	to 05211015_RB_M;
	configuration transformer_configuration:66;
}

object triplex_meter:129 {
	name 05211015_RB_M;
	phases "BS";
	nominal_voltage 120;
	voltage_1 -60.000-103.923j;
	voltage_2 -60.000-103.923j;
	voltage_N 0;
}

object triplex_node:130 {
	name 05211015_RB_TX;
	parent 05211015_RB_M;
	phases BS;
	nominal_voltage 120;
	latitude 48N58'47.021";
	longitude 119W56'31.140";
	power_1 3.47837544255007+1.1707279690542j;
	voltage_1 -60.000-103.923j;
	voltage_2 -60.000-103.923j;
	voltage_N 0;
}

object transformer:131  {
	phases "BS";
	from 05211019;
	to 05211019_RB_M;
	configuration transformer_configuration:66;
}

object triplex_meter:132 {
	name 05211019_RB_M;
	phases "BS";
	nominal_voltage 120;
	voltage_1 -60.000-103.923j;
	voltage_2 -60.000-103.923j;
	voltage_N 0;
}

object triplex_node:133 {
	name 05211019_RB_TX;
	parent 05211019_RB_M;
	phases BS;
	nominal_voltage 120;
	latitude 48N58'51.307";
	longitude 119W56'29.129";
	power_1 3.47837544255007+1.1707279690542j;
	voltage_1 -60.000-103.923j;
	voltage_2 -60.000-103.923j;
	voltage_N 0;
}

object transformer:134  {
	phases "AS";
	from 0521102;
	to 0521102_RA_M;
	configuration transformer_configuration:51;
}

object triplex_meter:135 {
	name 0521102_RA_M;
	phases "AS";
	nominal_voltage 120;
	voltage_1 120;
	voltage_2 120;
	voltage_N 0;
}

object triplex_node:136 {
	name 0521102_RA_TX;
	parent 0521102_RA_M;
	phases AS;
	nominal_voltage 120;
	latitude 48N56'17.064";
	longitude 119W56'43.429";
	power_1 2.10237667063347+0.707603653041324j;
	voltage_1 120;
	voltage_2 120;
	voltage_N 0;
}

object transformer:137  {
	phases "BS";
	from 0521102;
	to 0521102_RB_M;
	configuration transformer_configuration:67;
}

object triplex_meter:138 {
	name 0521102_RB_M;
	phases "BS";
	nominal_voltage 120;
	voltage_1 -60.000-103.923j;
	voltage_2 -60.000-103.923j;
	voltage_N 0;
}

object triplex_node:139 {
	name 0521102_RB_TX;
	parent 0521102_RB_M;
	phases BS;
	nominal_voltage 120;
	latitude 48N56'17.064";
	longitude 119W56'43.429";
	power_1 2.10237667063347+0.707603653041324j;
	voltage_1 -60.000-103.923j;
	voltage_2 -60.000-103.923j;
	voltage_N 0;
}

object transformer:140  {
	phases "CS";
	from 0521102;
	to 0521102_RC_M;
	configuration transformer_configuration:78;
}

object triplex_meter:141 {
	name 0521102_RC_M;
	phases "CS";
	nominal_voltage 120;
	voltage_1 -60.000+103.923j;
	voltage_2 -60.000+103.923j;
	voltage_N 0;
}

object triplex_node:142 {
	name 0521102_RC_TX;
	parent 0521102_RC_M;
	phases CS;
	nominal_voltage 120;
	latitude 48N56'17.064";
	longitude 119W56'43.429";
	power_1 0+0j;
	voltage_1 -60.000+103.923j;
	voltage_2 -60.000+103.923j;
	voltage_N 0;
}

object transformer:143  {
	phases "BS";
	from 05211022;
	to 05211022_RB_M;
	configuration transformer_configuration:66;
}

object triplex_meter:144 {
	name 05211022_RB_M;
	phases "BS";
	nominal_voltage 120;
	voltage_1 -60.000-103.923j;
	voltage_2 -60.000-103.923j;
	voltage_N 0;
}

object triplex_node:145 {
	name 05211022_RB_TX;
	parent 05211022_RB_M;
	phases BS;
	nominal_voltage 120;
	latitude 48N58'37.572";
	longitude 119W56'26.733";
	power_1 3.47837544255007+1.1707279690542j;
	voltage_1 -60.000-103.923j;
	voltage_2 -60.000-103.923j;
	voltage_N 0;
}

object transformer:146  {
	phases "BS";
	from 05211024;
	to 05211024_RB_M;
	configuration transformer_configuration:65;
}

object triplex_meter:147 {
	name 05211024_RB_M;
	phases "BS";
	nominal_voltage 120;
	voltage_1 -60.000-103.923j;
	voltage_2 -60.000-103.923j;
	voltage_N 0;
}

object triplex_node:148 {
	name 05211024_RB_TX;
	parent 05211024_RB_M;
	phases BS;
	nominal_voltage 120;
	latitude 48N58'40.308";
	longitude 119W56'23.125";
	power_1 1.37600631872182+0.463126856065295j;
	voltage_1 -60.000-103.923j;
	voltage_2 -60.000-103.923j;
	voltage_N 0;
}

object transformer:149  {
	phases "BS";
	from 05211025;
	to 05211025_RB_M;
	configuration transformer_configuration:66;
}

object triplex_meter:150 {
	name 05211025_RB_M;
	phases "BS";
	nominal_voltage 120;
	voltage_1 -60.000-103.923j;
	voltage_2 -60.000-103.923j;
	voltage_N 0;
}

object triplex_node:151 {
	name 05211025_RB_TX;
	parent 05211025_RB_M;
	phases BS;
	nominal_voltage 120;
	latitude 48N58'40.319";
	longitude 119W56'17.520";
	power_1 3.47837544255007+1.1707279690542j;
	voltage_1 -60.000-103.923j;
	voltage_2 -60.000-103.923j;
	voltage_N 0;
}

object transformer:152  {
	phases "BS";
	from 05211026;
	to 05211026_RB_M;
	configuration transformer_configuration:66;
}

object triplex_meter:153 {
	name 05211026_RB_M;
	phases "BS";
	nominal_voltage 120;
	voltage_1 -60.000-103.923j;
	voltage_2 -60.000-103.923j;
	voltage_N 0;
}

object triplex_node:154 {
	name 05211026_RB_TX;
	parent 05211026_RB_M;
	phases BS;
	nominal_voltage 120;
	latitude 48N58'40.360";
	longitude 119W56'11.279";
	power_1 3.47837544255007+1.1707279690542j;
	voltage_1 -60.000-103.923j;
	voltage_2 -60.000-103.923j;
	voltage_N 0;
}

object transformer:155  {
	phases "BS";
	from 05211028;
	to 05211028_RB_M;
	configuration transformer_configuration:65;
}

object triplex_meter:156 {
	name 05211028_RB_M;
	phases "BS";
	nominal_voltage 120;
	voltage_1 -60.000-103.923j;
	voltage_2 -60.000-103.923j;
	voltage_N 0;
}

object triplex_node:157 {
	name 05211028_RB_TX;
	parent 05211028_RB_M;
	phases BS;
	nominal_voltage 120;
	latitude 48N58'40.350";
	longitude 119W56'6.325";
	power_1 1.37600631872182+0.463126856065295j;
	voltage_1 -60.000-103.923j;
	voltage_2 -60.000-103.923j;
	voltage_N 0;
}

object transformer:158  {
	phases "BS";
	from 05211032;
	to 05211032_RB_M;
	configuration transformer_configuration:66;
}

object triplex_meter:159 {
	name 05211032_RB_M;
	phases "BS";
	nominal_voltage 120;
	voltage_1 -60.000-103.923j;
	voltage_2 -60.000-103.923j;
	voltage_N 0;
}

object triplex_node:160 {
	name 05211032_RB_TX;
	parent 05211032_RB_M;
	phases BS;
	nominal_voltage 120;
	latitude 48N58'32.883";
	longitude 119W56'10.126";
	power_1 3.47837544255007+1.1707279690542j;
	voltage_1 -60.000-103.923j;
	voltage_2 -60.000-103.923j;
	voltage_N 0;
}

object transformer:161  {
	phases "BS";
	from 05211034;
	to 05211034_RB_M;
	configuration transformer_configuration:65;
}

object triplex_meter:162 {
	name 05211034_RB_M;
	phases "BS";
	nominal_voltage 120;
	voltage_1 -60.000-103.923j;
	voltage_2 -60.000-103.923j;
	voltage_N 0;
}

object triplex_node:163 {
	name 05211034_RB_TX;
	parent 05211034_RB_M;
	phases BS;
	nominal_voltage 120;
	latitude 48N58'33.978";
	longitude 119W56'14.681";
	power_1 1.37600631872182+0.463126856065295j;
	voltage_1 -60.000-103.923j;
	voltage_2 -60.000-103.923j;
	voltage_N 0;
}

object transformer:164  {
	phases "BS";
	from 05211033;
	to 05211033_RB_M;
	configuration transformer_configuration:65;
}

object triplex_meter:165 {
	name 05211033_RB_M;
	phases "BS";
	nominal_voltage 120;
	voltage_1 -60.000-103.923j;
	voltage_2 -60.000-103.923j;
	voltage_N 0;
}

object triplex_node:166 {
	name 05211033_RB_TX;
	parent 05211033_RB_M;
	phases BS;
	nominal_voltage 120;
	latitude 48N58'30.797";
	longitude 119W56'10.111";
	power_1 1.37600631872182+0.463126856065295j;
	voltage_1 -60.000-103.923j;
	voltage_2 -60.000-103.923j;
	voltage_N 0;
}

object transformer:167  {
	phases "BS";
	from 05211039;
	to 05211039_RB_M;
	configuration transformer_configuration:65;
}

object triplex_meter:168 {
	name 05211039_RB_M;
	phases "BS";
	nominal_voltage 120;
	voltage_1 -60.000-103.923j;
	voltage_2 -60.000-103.923j;
	voltage_N 0;
}

object triplex_node:169 {
	name 05211039_RB_TX;
	parent 05211039_RB_M;
	phases BS;
	nominal_voltage 120;
	latitude 48N58'28.360";
	longitude 119W56'10.776";
	power_1 1.37600631872182+0.463126856065295j;
	voltage_1 -60.000-103.923j;
	voltage_2 -60.000-103.923j;
	voltage_N 0;
}

object transformer:170  {
	phases "BS";
	from 05211048;
	to 05211048_RB_M;
	configuration transformer_configuration:66;
}

object triplex_meter:171 {
	name 05211048_RB_M;
	phases "BS";
	nominal_voltage 120;
	voltage_1 -60.000-103.923j;
	voltage_2 -60.000-103.923j;
	voltage_N 0;
}

object triplex_node:172 {
	name 05211048_RB_TX;
	parent 05211048_RB_M;
	phases BS;
	nominal_voltage 120;
	latitude 48N58'23.455";
	longitude 119W56'2.096";
	power_1 3.47837544255007+1.1707279690542j;
	voltage_1 -60.000-103.923j;
	voltage_2 -60.000-103.923j;
	voltage_N 0;
}

object transformer:173  {
	phases "BS";
	from 05211047;
	to 05211047_RB_M;
	configuration transformer_configuration:66;
}

object triplex_meter:174 {
	name 05211047_RB_M;
	phases "BS";
	nominal_voltage 120;
	voltage_1 -60.000-103.923j;
	voltage_2 -60.000-103.923j;
	voltage_N 0;
}

object triplex_node:175 {
	name 05211047_RB_TX;
	parent 05211047_RB_M;
	phases BS;
	nominal_voltage 120;
	latitude 48N58'19.469";
	longitude 119W56'13.601";
	power_1 3.47837544255007+1.1707279690542j;
	voltage_1 -60.000-103.923j;
	voltage_2 -60.000-103.923j;
	voltage_N 0;
}

object transformer:176  {
	phases "BS";
	from 05211045;
	to 05211045_RB_M;
	configuration transformer_configuration:66;
}

object triplex_meter:177 {
	name 05211045_RB_M;
	phases "BS";
	nominal_voltage 120;
	voltage_1 -60.000-103.923j;
	voltage_2 -60.000-103.923j;
	voltage_N 0;
}

object triplex_node:178 {
	name 05211045_RB_TX;
	parent 05211045_RB_M;
	phases BS;
	nominal_voltage 120;
	latitude 48N58'26.160";
	longitude 119W56'25.047";
	power_1 3.47837544255007+1.1707279690542j;
	voltage_1 -60.000-103.923j;
	voltage_2 -60.000-103.923j;
	voltage_N 0;
}

object transformer:179  {
	phases "BS";
	from 05211046;
	to 05211046_RB_M;
	configuration transformer_configuration:66;
}

object triplex_meter:180 {
	name 05211046_RB_M;
	phases "BS";
	nominal_voltage 120;
	voltage_1 -60.000-103.923j;
	voltage_2 -60.000-103.923j;
	voltage_N 0;
}

object triplex_node:181 {
	name 05211046_RB_TX;
	parent 05211046_RB_M;
	phases BS;
	nominal_voltage 120;
	latitude 48N58'27.080";
	longitude 119W56'16.884";
	power_1 3.47837544255007+1.1707279690542j;
	voltage_1 -60.000-103.923j;
	voltage_2 -60.000-103.923j;
	voltage_N 0;
}

object transformer:182  {
	phases "BS";
	from 05211049;
	to 05211049_RB_M;
	configuration transformer_configuration:66;
}

object triplex_meter:183 {
	name 05211049_RB_M;
	phases "BS";
	nominal_voltage 120;
	voltage_1 -60.000-103.923j;
	voltage_2 -60.000-103.923j;
	voltage_N 0;
}

object triplex_node:184 {
	name 05211049_RB_TX;
	parent 05211049_RB_M;
	phases BS;
	nominal_voltage 120;
	latitude 48N58'23.445";
	longitude 119W55'57.201";
	power_1 3.47837544255007+1.1707279690542j;
	voltage_1 -60.000-103.923j;
	voltage_2 -60.000-103.923j;
	voltage_N 0;
}

object transformer:185  {
	phases "BS";
	from 05211051;
	to 05211051_RB_M;
	configuration transformer_configuration:66;
}

object triplex_meter:186 {
	name 05211051_RB_M;
	phases "BS";
	nominal_voltage 120;
	voltage_1 -60.000-103.923j;
	voltage_2 -60.000-103.923j;
	voltage_N 0;
}

object triplex_node:187 {
	name 05211051_RB_TX;
	parent 05211051_RB_M;
	phases BS;
	nominal_voltage 120;
	latitude 48N58'22.205";
	longitude 119W55'53.725";
	power_1 3.47837544255007+1.1707279690542j;
	voltage_1 -60.000-103.923j;
	voltage_2 -60.000-103.923j;
	voltage_N 0;
}

object transformer:188  {
	phases "BS";
	from 05211053;
	to 05211053_RB_M;
	configuration transformer_configuration:66;
}

object triplex_meter:189 {
	name 05211053_RB_M;
	phases "BS";
	nominal_voltage 120;
	voltage_1 -60.000-103.923j;
	voltage_2 -60.000-103.923j;
	voltage_N 0;
}

object triplex_node:190 {
	name 05211053_RB_TX;
	parent 05211053_RB_M;
	phases BS;
	nominal_voltage 120;
	latitude 48N58'44.119";
	longitude 119W56'22.252";
	power_1 3.47837544255007+1.1707279690542j;
	voltage_1 -60.000-103.923j;
	voltage_2 -60.000-103.923j;
	voltage_N 0;
}

object transformer:191  {
	phases "BS";
	from 05211056;
	to 05211056_RB_M;
	configuration transformer_configuration:66;
}

object triplex_meter:192 {
	name 05211056_RB_M;
	phases "BS";
	nominal_voltage 120;
	voltage_1 -60.000-103.923j;
	voltage_2 -60.000-103.923j;
	voltage_N 0;
}

object triplex_node:193 {
	name 05211056_RB_TX;
	parent 05211056_RB_M;
	phases BS;
	nominal_voltage 120;
	latitude 48N58'46.659";
	longitude 119W56'15.154";
	power_1 3.47837544255007+1.1707279690542j;
	voltage_1 -60.000-103.923j;
	voltage_2 -60.000-103.923j;
	voltage_N 0;
}

object transformer:194  {
	phases "BS";
	from 05211057;
	to 05211057_RB_M;
	configuration transformer_configuration:67;
}

object triplex_meter:195 {
	name 05211057_RB_M;
	phases "BS";
	nominal_voltage 120;
	voltage_1 -60.000-103.923j;
	voltage_2 -60.000-103.923j;
	voltage_N 0;
}

object triplex_node:196 {
	name 05211057_RB_TX;
	parent 05211057_RB_M;
	phases BS;
	nominal_voltage 120;
	latitude 48N58'49.272";
	longitude 119W56'11.752";
	power_1 2.10237667063347+0.707603653041324j;
	voltage_1 -60.000-103.923j;
	voltage_2 -60.000-103.923j;
	voltage_N 0;
}

object transformer:197  {
	phases "BS";
	from 05211063;
	to 05211063_RB_M;
	configuration transformer_configuration:66;
}

object triplex_meter:198 {
	name 05211063_RB_M;
	phases "BS";
	nominal_voltage 120;
	voltage_1 -60.000-103.923j;
	voltage_2 -60.000-103.923j;
	voltage_N 0;
}

object triplex_node:199 {
	name 05211063_RB_TX;
	parent 05211063_RB_M;
	phases BS;
	nominal_voltage 120;
	latitude 48N58'53.341";
	longitude 119W56'10.983";
	power_1 3.47837544255007+1.1707279690542j;
	voltage_1 -60.000-103.923j;
	voltage_2 -60.000-103.923j;
	voltage_N 0;
}

object transformer:200  {
	phases "BS";
	from 05211059;
	to 05211059_RB_M;
	configuration transformer_configuration:66;
}

object triplex_meter:201 {
	name 05211059_RB_M;
	phases "BS";
	nominal_voltage 120;
	voltage_1 -60.000-103.923j;
	voltage_2 -60.000-103.923j;
	voltage_N 0;
}

object triplex_node:202 {
	name 05211059_RB_TX;
	parent 05211059_RB_M;
	phases BS;
	nominal_voltage 120;
	latitude 48N58'48.260";
	longitude 119W56'6.783";
	power_1 3.47837544255007+1.1707279690542j;
	voltage_1 -60.000-103.923j;
	voltage_2 -60.000-103.923j;
	voltage_N 0;
}

object transformer:203  {
	phases "BS";
	from 05211062;
	to 05211062_RB_M;
	configuration transformer_configuration:66;
}

object triplex_meter:204 {
	name 05211062_RB_M;
	phases "BS";
	nominal_voltage 120;
	voltage_1 -60.000-103.923j;
	voltage_2 -60.000-103.923j;
	voltage_N 0;
}

object triplex_node:205 {
	name 05211062_RB_TX;
	parent 05211062_RB_M;
	phases BS;
	nominal_voltage 120;
	latitude 48N58'50.945";
	longitude 119W56'3.737";
	power_1 3.47837544255007+1.1707279690542j;
	voltage_1 -60.000-103.923j;
	voltage_2 -60.000-103.923j;
	voltage_N 0;
}

object transformer:206  {
	phases "BS";
	from 05211064;
	to 05211064_RB_M;
	configuration transformer_configuration:67;
}

object triplex_meter:207 {
	name 05211064_RB_M;
	phases "BS";
	nominal_voltage 120;
	voltage_1 -60.000-103.923j;
	voltage_2 -60.000-103.923j;
	voltage_N 0;
}

object triplex_node:208 {
	name 05211064_RB_TX;
	parent 05211064_RB_M;
	phases BS;
	nominal_voltage 120;
	latitude 48N58'56.160";
	longitude 119W56'10.067";
	power_1 2.10237667063347+0.707603653041324j;
	voltage_1 -60.000-103.923j;
	voltage_2 -60.000-103.923j;
	voltage_N 0;
}

object transformer:209  {
	phases "BS";
	from 05211068;
	to 05211068_RB_M;
	configuration transformer_configuration:67;
}

object triplex_meter:210 {
	name 05211068_RB_M;
	phases "BS";
	nominal_voltage 120;
	voltage_1 -60.000-103.923j;
	voltage_2 -60.000-103.923j;
	voltage_N 0;
}

object triplex_node:211 {
	name 05211068_RB_TX;
	parent 05211068_RB_M;
	phases BS;
	nominal_voltage 120;
	latitude 48N58'58.019";
	longitude 119W56'7.183";
	power_1 2.10237667063347+0.707603653041324j;
	voltage_1 -60.000-103.923j;
	voltage_2 -60.000-103.923j;
	voltage_N 0;
}

object transformer:212  {
	phases "BS";
	from 05211067;
	to 05211067_RB_M;
	configuration transformer_configuration:66;
}

object triplex_meter:213 {
	name 05211067_RB_M;
	phases "BS";
	nominal_voltage 120;
	voltage_1 -60.000-103.923j;
	voltage_2 -60.000-103.923j;
	voltage_N 0;
}

object triplex_node:214 {
	name 05211067_RB_TX;
	parent 05211067_RB_M;
	phases BS;
	nominal_voltage 120;
	latitude 48N59'0.673";
	longitude 119W56'14.000";
	power_1 3.47837544255007+1.1707279690542j;
	voltage_1 -60.000-103.923j;
	voltage_2 -60.000-103.923j;
	voltage_N 0;
}

object transformer:215  {
	phases "BS";
	from 05211070;
	to 05211070_RB_M;
	configuration transformer_configuration:66;
}

object triplex_meter:216 {
	name 05211070_RB_M;
	phases "BS";
	nominal_voltage 120;
	voltage_1 -60.000-103.923j;
	voltage_2 -60.000-103.923j;
	voltage_N 0;
}

object triplex_node:217 {
	name 05211070_RB_TX;
	parent 05211070_RB_M;
	phases BS;
	nominal_voltage 120;
	latitude 48N58'57.389";
	longitude 119W56'2.229";
	power_1 3.47837544255007+1.1707279690542j;
	voltage_1 -60.000-103.923j;
	voltage_2 -60.000-103.923j;
	voltage_N 0;
}

object transformer:218  {
	phases "BS";
	from 05211072;
	to 05211072_RB_M;
	configuration transformer_configuration:68;
}

object triplex_meter:219 {
	name 05211072_RB_M;
	phases "BS";
	nominal_voltage 120;
	voltage_1 -60.000-103.923j;
	voltage_2 -60.000-103.923j;
	voltage_N 0;
}

object triplex_node:220 {
	name 05211072_RB_TX;
	parent 05211072_RB_M;
	phases BS;
	nominal_voltage 120;
	latitude 48N59'1.231";
	longitude 119W55'56.683";
	power_1 3.47837544255007+1.1707279690542j;
	voltage_1 -60.000-103.923j;
	voltage_2 -60.000-103.923j;
	voltage_N 0;
}

object transformer:221  {
	phases "BS";
	from 05211097;
	to 05211097_RB_M;
	configuration transformer_configuration:66;
}

object triplex_meter:222 {
	name 05211097_RB_M;
	phases "BS";
	nominal_voltage 120;
	voltage_1 -60.000-103.923j;
	voltage_2 -60.000-103.923j;
	voltage_N 0;
}

object triplex_node:223 {
	name 05211097_RB_TX;
	parent 05211097_RB_M;
	phases BS;
	nominal_voltage 120;
	latitude 48N59'4.897";
	longitude 119W55'47.692";
	power_1 3.47837544255007+1.1707279690542j;
	voltage_1 -60.000-103.923j;
	voltage_2 -60.000-103.923j;
	voltage_N 0;
}

object transformer:224  {
	phases "BS";
	from 05211080;
	to 05211080_RB_M;
	configuration transformer_configuration:66;
}

object triplex_meter:225 {
	name 05211080_RB_M;
	phases "BS";
	nominal_voltage 120;
	voltage_1 -60.000-103.923j;
	voltage_2 -60.000-103.923j;
	voltage_N 0;
}

object triplex_node:226 {
	name 05211080_RB_TX;
	parent 05211080_RB_M;
	phases BS;
	nominal_voltage 120;
	latitude 48N59'5.826";
	longitude 119W55'33.569";
	power_1 3.47837544255007+1.1707279690542j;
	voltage_1 -60.000-103.923j;
	voltage_2 -60.000-103.923j;
	voltage_N 0;
}

object transformer:227  {
	phases "BS";
	from 05211095;
	to 05211095_RB_M;
	configuration transformer_configuration:66;
}

object triplex_meter:228 {
	name 05211095_RB_M;
	phases "BS";
	nominal_voltage 120;
	voltage_1 -60.000-103.923j;
	voltage_2 -60.000-103.923j;
	voltage_N 0;
}

object triplex_node:229 {
	name 05211095_RB_TX;
	parent 05211095_RB_M;
	phases BS;
	nominal_voltage 120;
	latitude 48N59'4.411";
	longitude 119W55'38.094";
	power_1 3.47837544255007+1.1707279690542j;
	voltage_1 -60.000-103.923j;
	voltage_2 -60.000-103.923j;
	voltage_N 0;
}

object transformer:230  {
	phases "BS";
	from 05211084;
	to 05211084_RB_M;
	configuration transformer_configuration:66;
}

object triplex_meter:231 {
	name 05211084_RB_M;
	phases "BS";
	nominal_voltage 120;
	voltage_1 -60.000-103.923j;
	voltage_2 -60.000-103.923j;
	voltage_N 0;
}

object triplex_node:232 {
	name 05211084_RB_TX;
	parent 05211084_RB_M;
	phases BS;
	nominal_voltage 120;
	latitude 48N58'58.732";
	longitude 119W55'24.311";
	power_1 3.47837544255007+1.1707279690542j;
	voltage_1 -60.000-103.923j;
	voltage_2 -60.000-103.923j;
	voltage_N 0;
}

object transformer:233  {
	phases "BS";
	from 05211085;
	to 05211085_RB_M;
	configuration transformer_configuration:66;
}

object triplex_meter:234 {
	name 05211085_RB_M;
	phases "BS";
	nominal_voltage 120;
	voltage_1 -60.000-103.923j;
	voltage_2 -60.000-103.923j;
	voltage_N 0;
}

object triplex_node:235 {
	name 05211085_RB_TX;
	parent 05211085_RB_M;
	phases BS;
	nominal_voltage 120;
	latitude 48N58'54.663";
	longitude 119W55'25.050";
	power_1 3.47837544255007+1.1707279690542j;
	voltage_1 -60.000-103.923j;
	voltage_2 -60.000-103.923j;
	voltage_N 0;
}

object transformer:236  {
	phases "BS";
	from 05211087;
	to 05211087_RB_M;
	configuration transformer_configuration:66;
}

object triplex_meter:237 {
	name 05211087_RB_M;
	phases "BS";
	nominal_voltage 120;
	voltage_1 -60.000-103.923j;
	voltage_2 -60.000-103.923j;
	voltage_N 0;
}

object triplex_node:238 {
	name 05211087_RB_TX;
	parent 05211087_RB_M;
	phases BS;
	nominal_voltage 120;
	latitude 48N58'48.229";
	longitude 119W55'28.481";
	power_1 3.47837544255007+1.1707279690542j;
	voltage_1 -60.000-103.923j;
	voltage_2 -60.000-103.923j;
	voltage_N 0;
}

object transformer:239  {
	phases "BS";
	from 05211088;
	to 05211088_RB_M;
	configuration transformer_configuration:66;
}

object triplex_meter:240 {
	name 05211088_RB_M;
	phases "BS";
	nominal_voltage 120;
	voltage_1 -60.000-103.923j;
	voltage_2 -60.000-103.923j;
	voltage_N 0;
}

object triplex_node:241 {
	name 05211088_RB_TX;
	parent 05211088_RB_M;
	phases BS;
	nominal_voltage 120;
	latitude 48N58'42.147";
	longitude 119W55'28.540";
	power_1 3.47837544255007+1.1707279690542j;
	voltage_1 -60.000-103.923j;
	voltage_2 -60.000-103.923j;
	voltage_N 0;
}

object transformer:242  {
	phases "BS";
	from 05211090;
	to 05211090_RB_M;
	configuration transformer_configuration:66;
}

object triplex_meter:243 {
	name 05211090_RB_M;
	phases "BS";
	nominal_voltage 120;
	voltage_1 -60.000-103.923j;
	voltage_2 -60.000-103.923j;
	voltage_N 0;
}

object triplex_node:244 {
	name 05211090_RB_TX;
	parent 05211090_RB_M;
	phases BS;
	nominal_voltage 120;
	latitude 48N58'39.183";
	longitude 119W55'24.222";
	power_1 3.47837544255007+1.1707279690542j;
	voltage_1 -60.000-103.923j;
	voltage_2 -60.000-103.923j;
	voltage_N 0;
}

object transformer:245  {
	phases "A|B|C|N";
	from 05211123;
	to 05211123_A_M;
	configuration transformer_configuration:92;
}

object meter:246 {
	name 05211123_A_M;
	phases "ABCN";
	nominal_voltage 7199.558;
	voltage_A 7199.558+0.0j;
	voltage_B -3599.779-6235.000j;
	voltage_C -3599.779+6235.000j;
}
object transformer:247  {
	phases "BS";
	from 05211094;
	to 05211094_RB_M;
	configuration transformer_configuration:66;
}

object triplex_meter:248 {
	name 05211094_RB_M;
	phases "BS";
	nominal_voltage 120;
	voltage_1 -60.000-103.923j;
	voltage_2 -60.000-103.923j;
	voltage_N 0;
}

object triplex_node:249 {
	name 05211094_RB_TX;
	parent 05211094_RB_M;
	phases BS;
	nominal_voltage 120;
	latitude 48N58'26.253";
	longitude 119W55'26.130";
	power_1 3.47837544255007+1.1707279690542j;
	voltage_1 -60.000-103.923j;
	voltage_2 -60.000-103.923j;
	voltage_N 0;
}

object transformer:250  {
	phases "BS";
	from 05211100;
	to 05211100_RB_M;
	configuration transformer_configuration:66;
}

object triplex_meter:251 {
	name 05211100_RB_M;
	phases "BS";
	nominal_voltage 120;
	voltage_1 -60.000-103.923j;
	voltage_2 -60.000-103.923j;
	voltage_N 0;
}

object triplex_node:252 {
	name 05211100_RB_TX;
	parent 05211100_RB_M;
	phases BS;
	nominal_voltage 120;
	latitude 48N58'54.756";
	longitude 119W55'41.747";
	power_1 3.47837544255007+1.1707279690542j;
	voltage_1 -60.000-103.923j;
	voltage_2 -60.000-103.923j;
	voltage_N 0;
}

object transformer:253  {
	phases "AS";
	from 05211110;
	to 05211110_RA_M;
	configuration transformer_configuration:52;
}

object triplex_meter:254 {
	name 05211110_RA_M;
	phases "AS";
	nominal_voltage 120;
	voltage_1 120;
	voltage_2 120;
	voltage_N 0;
}

object triplex_node:255 {
	name 05211110_RA_TX;
	parent 05211110_RA_M;
	phases AS;
	nominal_voltage 120;
	latitude 48N57'25.758";
	longitude 119W56'30.046";
	power_1 3.47837544255007+1.1707279690542j;
	voltage_1 120;
	voltage_2 120;
	voltage_N 0;
}

object transformer:256  {
	phases "CS";
	from 05211110;
	to 05211110_RC_M;
	configuration transformer_configuration:79;
}

object triplex_meter:257 {
	name 05211110_RC_M;
	phases "CS";
	nominal_voltage 120;
	voltage_1 -60.000+103.923j;
	voltage_2 -60.000+103.923j;
	voltage_N 0;
}

object triplex_node:258 {
	name 05211110_RC_TX;
	parent 05211110_RC_M;
	phases CS;
	nominal_voltage 120;
	latitude 48N57'25.758";
	longitude 119W56'30.046";
	power_1 3.47837544255007+1.1707279690542j;
	voltage_1 -60.000+103.923j;
	voltage_2 -60.000+103.923j;
	voltage_N 0;
}

object transformer:259  {
	phases "AS";
	from 05211109;
	to 05211109_RA_M;
	configuration transformer_configuration:53;
}

object triplex_meter:260 {
	name 05211109_RA_M;
	phases "AS";
	nominal_voltage 120;
	voltage_1 120;
	voltage_2 120;
	voltage_N 0;
}

object triplex_node:261 {
	name 05211109_RA_TX;
	parent 05211109_RA_M;
	phases AS;
	nominal_voltage 120;
	latitude 48N57'25.924";
	longitude 119W56'28.330";
	power_1 13.9224777172697+4.68593293948512j;
	voltage_1 120;
	voltage_2 120;
	voltage_N 0;
}

object transformer:262  {
	phases "BS";
	from 05211109;
	to 05211109_RB_M;
	configuration transformer_configuration:69;
}

object triplex_meter:263 {
	name 05211109_RB_M;
	phases "BS";
	nominal_voltage 120;
	voltage_1 -60.000-103.923j;
	voltage_2 -60.000-103.923j;
	voltage_N 0;
}

object triplex_node:264 {
	name 05211109_RB_TX;
	parent 05211109_RB_M;
	phases BS;
	nominal_voltage 120;
	latitude 48N57'25.924";
	longitude 119W56'28.330";
	power_1 13.9224777172697+4.68593293948512j;
	voltage_1 -60.000-103.923j;
	voltage_2 -60.000-103.923j;
	voltage_N 0;
}
