// $Id: R3-12.47-3.glm 228 2009-05-27 18:16:10Z ychen $ 
//*********************************************

clock { 
	 timezone MST+7MDT;
	 timestamp '2000-01-01 0:00:00';
}

//*********************************************
// modules
module powerflow;


object fuse:9800 {
	name R3-12-47-3_fuse_1;
	phases "BCN";
	from R3-12-47-3_node_1105;
	to R3-12-47-3_node_1106;
	current_limit 3000.0;
	status CLOSED;
}

object fuse:9801 {
	name R3-12-47-3_fuse_2;
	phases "ABCN";
	from R3-12-47-3_node_121;
	to R3-12-47-3_node_120;
	current_limit 3000.0;
	status CLOSED;
}

object fuse:9802 {
	name R3-12-47-3_fuse_3;
	phases "BCN";
	from R3-12-47-3_node_1123;
	to R3-12-47-3_node_1122;
	current_limit 3000.0;
	status CLOSED;
}

object fuse:9803 {
	name R3-12-47-3_fuse_4;
	phases "BCN";
	from R3-12-47-3_node_1171;
	to R3-12-47-3_node_1172;
	current_limit 3000.0;
	status CLOSED;
}

object fuse:9804 {
	name R3-12-47-3_fuse_5;
	phases "BCN";
	from R3-12-47-3_node_1183;
	to R3-12-47-3_node_1182;
	current_limit 3000.0;
	status CLOSED;
}

object fuse:9805 {
	name R3-12-47-3_fuse_6;
	phases "ABCN";
	from R3-12-47-3_node_1211;
	to R3-12-47-3_node_1210;
	current_limit 3000.0;
	status CLOSED;
}

object fuse:9806 {
	name R3-12-47-3_fuse_7;
	phases "ABCN";
	from R3-12-47-3_node_1227;
	to R3-12-47-3_node_1228;
	current_limit 3000.0;
	status CLOSED;
}

object fuse:9807 {
	name R3-12-47-3_fuse_8;
	phases "ACN";
	from R3-12-47-3_node_1239;
	to R3-12-47-3_node_1238;
	current_limit 3000.0;
	status CLOSED;
}

object fuse:9808 {
	name R3-12-47-3_fuse_9;
	phases "ACN";
	from R3-12-47-3_node_1251;
	to R3-12-47-3_node_1250;
	current_limit 3000.0;
	status CLOSED;
}

object fuse:9809 {
	name R3-12-47-3_fuse_10;
	phases "ACN";
	from R3-12-47-3_node_1262;
	to R3-12-47-3_node_1261;
	current_limit 3000.0;
	status CLOSED;
}

object fuse:9810 {
	name R3-12-47-3_fuse_11;
	phases "ABCN";
	from R3-12-47-3_node_1295;
	to R3-12-47-3_node_1294;
	current_limit 3000.0;
	status CLOSED;
}

object fuse:9811 {
	name R3-12-47-3_fuse_12;
	phases "ACN";
	from R3-12-47-3_node_1310;
	to R3-12-47-3_node_1309;
	current_limit 3000.0;
	status CLOSED;
}

object fuse:9812 {
	name R3-12-47-3_fuse_13;
	phases "AN";
	from R3-12-47-3_node_1318;
	to R3-12-47-3_node_1319;
	current_limit 3000.0;
	status CLOSED;
}

object fuse:9813 {
	name R3-12-47-3_fuse_14;
	phases "CN";
	from R3-12-47-3_node_17;
	to R3-12-47-3_node_18;
	current_limit 3000.0;
	status CLOSED;
}

object fuse:9814 {
	name R3-12-47-3_fuse_15;
	phases "ABCN";
	from R3-12-47-3_node_167;
	to R3-12-47-3_node_168;
	current_limit 3000.0;
	status CLOSED;
}

object fuse:9815 {
	name R3-12-47-3_fuse_16;
	phases "ACN";
	from R3-12-47-3_node_19;
	to R3-12-47-3_node_20;
	current_limit 3000.0;
	status CLOSED;
}

object fuse:9816 {
	name R3-12-47-3_fuse_17;
	phases "ABCN";
	from R3-12-47-3_node_181;
	to R3-12-47-3_node_180;
	current_limit 3000.0;
	status CLOSED;
}

object fuse:9817 {
	name R3-12-47-3_fuse_18;
	phases "ACN";
	from R3-12-47-3_node_183;
	to R3-12-47-3_node_184;
	current_limit 3000.0;
	status CLOSED;
}

object fuse:9818 {
	name R3-12-47-3_fuse_19;
	phases "ABCN";
	from R3-12-47-3_node_196;
	to R3-12-47-3_node_195;
	current_limit 3000.0;
	status CLOSED;
}

object fuse:9819 {
	name R3-12-47-3_fuse_20;
	phases "ABCN";
	from R3-12-47-3_node_200;
	to R3-12-47-3_node_201;
	current_limit 3000.0;
	status CLOSED;
}

object fuse:9820 {
	name R3-12-47-3_fuse_21;
	phases "BN";
	from R3-12-47-3_node_23;
	to R3-12-47-3_node_22;
	current_limit 3000.0;
	status CLOSED;
}

object fuse:9821 {
	name R3-12-47-3_fuse_22;
	phases "ABN";
	from R3-12-47-3_node_1332;
	to R3-12-47-3_node_1331;
	current_limit 3000.0;
	status CLOSED;
}

object fuse:9822 {
	name R3-12-47-3_fuse_23;
	phases "AN";
	from R3-12-47-3_node_1344;
	to R3-12-47-3_node_1345;
	current_limit 3000.0;
	status CLOSED;
}

object fuse:9823 {
	name R3-12-47-3_fuse_24;
	phases "AN";
	from R3-12-47-3_node_1351;
	to R3-12-47-3_node_1350;
	current_limit 3000.0;
	status CLOSED;
}

object fuse:9824 {
	name R3-12-47-3_fuse_25;
	phases "BCN";
	from R3-12-47-3_node_1354;
	to R3-12-47-3_node_1355;
	current_limit 3000.0;
	status CLOSED;
}

object fuse:9825 {
	name R3-12-47-3_fuse_26;
	phases "BCN";
	from R3-12-47-3_node_1358;
	to R3-12-47-3_node_1359;
	current_limit 3000.0;
	status CLOSED;
}

object fuse:9826 {
	name R3-12-47-3_fuse_27;
	phases "CN";
	from R3-12-47-3_node_1365;
	to R3-12-47-3_node_1364;
	current_limit 3000.0;
	status CLOSED;
}

object fuse:9827 {
	name R3-12-47-3_fuse_28;
	phases "ACN";
	from R3-12-47-3_node_226;
	to R3-12-47-3_node_227;
	current_limit 3000.0;
	status CLOSED;
}

object fuse:9829 {
	name R3-12-47-3_fuse_29;
	phases "ABN";
	from R3-12-47-3_node_243;
	to R3-12-47-3_node_244;
	current_limit 3000.0;
	status CLOSED;
}

object fuse:9830 {
	name R3-12-47-3_fuse_30;
	phases "ACN";
	from R3-12-47-3_node_1383;
	to R3-12-47-3_node_1384;
	current_limit 3000.0;
	status CLOSED;
}

object fuse:9831 {
	name R3-12-47-3_fuse_31;
	phases "ABCN";
	from R3-12-47-3_node_1399;
	to R3-12-47-3_node_1398;
	current_limit 3000.0;
	status CLOSED;
}

object fuse:9832 {
	name R3-12-47-3_fuse_32;
	phases "ACN";
	from R3-12-47-3_node_265;
	to R3-12-47-3_node_264;
	current_limit 3000.0;
	status CLOSED;
}

object fuse:9833 {
	name R3-12-47-3_fuse_33;
	phases "ACN";
	from R3-12-47-3_node_272;
	to R3-12-47-3_node_273;
	current_limit 3000.0;
	status CLOSED;
}

object fuse:9834 {
	name R3-12-47-3_fuse_34;
	phases "BCN";
	from R3-12-47-3_node_275;
	to R3-12-47-3_node_276;
	current_limit 3000.0;
	status CLOSED;
}

object fuse:9835 {
	name R3-12-47-3_fuse_35;
	phases "ABN";
	from R3-12-47-3_node_287;
	to R3-12-47-3_node_286;
	current_limit 3000.0;
	status CLOSED;
}

object fuse:9836 {
	name R3-12-47-3_fuse_36;
	phases "ABN";
	from R3-12-47-3_node_307;
	to R3-12-47-3_node_306;
	current_limit 3000.0;
	status CLOSED;
}

object fuse:9837 {
	name R3-12-47-3_fuse_37;
	phases "ABN";
	from R3-12-47-3_node_319;
	to R3-12-47-3_node_318;
	current_limit 3000.0;
	status CLOSED;
}

object fuse:9838 {
	name R3-12-47-3_fuse_38;
	phases "ABN";
	from R3-12-47-3_node_332;
	to R3-12-47-3_node_333;
	current_limit 3000.0;
	status CLOSED;
}

object fuse:9839 {
	name R3-12-47-3_fuse_39;
	phases "ABN";
	from R3-12-47-3_node_353;
	to R3-12-47-3_node_354;
	current_limit 3000.0;
	status CLOSED;
}

object fuse:9840 {
	name R3-12-47-3_fuse_40;
	phases "BCN";
	from R3-12-47-3_node_1432;
	to R3-12-47-3_node_1431;
	current_limit 3000.0;
	status CLOSED;
}

object fuse:9841 {
	name R3-12-47-3_fuse_41;
	phases "ACN";
	from R3-12-47-3_node_371;
	to R3-12-47-3_node_370;
	current_limit 3000.0;
	status CLOSED;
}

object fuse:9842 {
	name R3-12-47-3_fuse_42;
	phases "ACN";
	from R3-12-47-3_node_379;
	to R3-12-47-3_node_380;
	current_limit 3000.0;
	status CLOSED;
}

object fuse:9843 {
	name R3-12-47-3_fuse_43;
	phases "ACN";
	from R3-12-47-3_node_393;
	to R3-12-47-3_node_392;
	current_limit 3000.0;
	status CLOSED;
}

object fuse:9844 {
	name R3-12-47-3_fuse_44;
	phases "ABCN";
	from R3-12-47-3_node_1442;
	to R3-12-47-3_node_1441;
	current_limit 3000.0;
	status CLOSED;
}

object fuse:9845 {
	name R3-12-47-3_fuse_45;
	phases "ABCN";
	from R3-12-47-3_node_1452;
	to R3-12-47-3_node_1451;
	current_limit 3000.0;
	status CLOSED;
}

object fuse:9846 {
	name R3-12-47-3_fuse_46;
	phases "ABCN";
	from R3-12-47-3_node_440;
	to R3-12-47-3_node_441;
	current_limit 3000.0;
	status CLOSED;
}

object fuse:9847 {
	name R3-12-47-3_fuse_47;
	phases "ACN";
	from R3-12-47-3_node_1482;
	to R3-12-47-3_node_1483;
	current_limit 3000.0;
	status CLOSED;
}

object fuse:9848 {
	name R3-12-47-3_fuse_48;
	phases "ACN";
	from R3-12-47-3_node_1494;
	to R3-12-47-3_node_1493;
	current_limit 3000.0;
	status CLOSED;
}

object fuse:9849 {
	name R3-12-47-3_fuse_49;
	phases "ACN";
	from R3-12-47-3_node_1498;
	to R3-12-47-3_node_1497;
	current_limit 3000.0;
	status CLOSED;
}

object fuse:9850 {
	name R3-12-47-3_fuse_50;
	phases "ABCN";
	from R3-12-47-3_node_49;
	to R3-12-47-3_node_48;
	current_limit 3000.0;
	status CLOSED;
}

object fuse:9851 {
	name R3-12-47-3_fuse_51;
	phases "ACN";
	from R3-12-47-3_node_451;
	to R3-12-47-3_node_450;
	current_limit 3000.0;
	status CLOSED;
}

object fuse:9852 {
	name R3-12-47-3_fuse_52;
	phases "ACN";
	from R3-12-47-3_node_454;
	to R3-12-47-3_node_455;
	current_limit 3000.0;
	status CLOSED;
}

object fuse:9853 {
	name R3-12-47-3_fuse_53;
	phases "ACN";
	from R3-12-47-3_node_459;
	to R3-12-47-3_node_460;
	current_limit 3000.0;
	status CLOSED;
}

object fuse:9854 {
	name R3-12-47-3_fuse_54;
	phases "BN";
	from R3-12-47-3_node_51;
	to R3-12-47-3_node_52;
	current_limit 3000.0;
	status CLOSED;
}

object fuse:9855 {
	name R3-12-47-3_fuse_55;
	phases "AN";
	from R3-12-47-3_node_1507;
	to R3-12-47-3_node_1508;
	current_limit 3000.0;
	status CLOSED;
}

object fuse:9856 {
	name R3-12-47-3_fuse_56;
	phases "ACN";
	from R3-12-47-3_node_1517;
	to R3-12-47-3_node_1516;
	current_limit 3000.0;
	status CLOSED;
}

object fuse:9857 {
	name R3-12-47-3_fuse_57;
	phases "ACN";
	from R3-12-47-3_node_1524;
	to R3-12-47-3_node_1525;
	current_limit 3000.0;
	status CLOSED;
}

object fuse:9858 {
	name R3-12-47-3_fuse_58;
	phases "ACN";
	from R3-12-47-3_node_1531;
	to R3-12-47-3_node_1532;
	current_limit 3000.0;
	status CLOSED;
}

object fuse:9859 {
	name R3-12-47-3_fuse_59;
	phases "ACN";
	from R3-12-47-3_node_1551;
	to R3-12-47-3_node_1552;
	current_limit 3000.0;
	status CLOSED;
}

object fuse:9860 {
	name R3-12-47-3_fuse_60;
	phases "ABN";
	from R3-12-47-3_node_481;
	to R3-12-47-3_node_482;
	current_limit 3000.0;
	status CLOSED;
}

object fuse:9861 {
	name R3-12-47-3_fuse_61;
	phases "ACN";
	from R3-12-47-3_node_53;
	to R3-12-47-3_node_54;
	current_limit 3000.0;
	status CLOSED;
}

object fuse:9862 {
	name R3-12-47-3_fuse_62;
	phases "ABN";
	from R3-12-47-3_node_490;
	to R3-12-47-3_node_491;
	current_limit 3000.0;
	status CLOSED;
}

object fuse:9863 {
	name R3-12-47-3_fuse_63;
	phases "ABCN";
	from R3-12-47-3_node_499;
	to R3-12-47-3_node_500;
	current_limit 3000.0;
	status CLOSED;
}

object fuse:9864 {
	name R3-12-47-3_fuse_64;
	phases "ABN";
	from R3-12-47-3_node_505;
	to R3-12-47-3_node_504;
	current_limit 3000.0;
	status CLOSED;
}

object fuse:9865 {
	name R3-12-47-3_fuse_65;
	phases "ABN";
	from R3-12-47-3_node_1561;
	to R3-12-47-3_node_1562;
	current_limit 3000.0;
	status CLOSED;
}

object fuse:9866 {
	name R3-12-47-3_fuse_66;
	phases "ABCN";
	from R3-12-47-3_node_1566;
	to R3-12-47-3_node_1565;
	current_limit 3000.0;
	status CLOSED;
}

object fuse:9867 {
	name R3-12-47-3_fuse_67;
	phases "ABCN";
	from R3-12-47-3_node_1570;
	to R3-12-47-3_node_1571;
	current_limit 3000.0;
	status CLOSED;
}

object fuse:9868 {
	name R3-12-47-3_fuse_68;
	phases "BCN";
	from R3-12-47-3_node_1582;
	to R3-12-47-3_node_1581;
	current_limit 3000.0;
	status CLOSED;
}

object fuse:9869 {
	name R3-12-47-3_fuse_69;
	phases "BCN";
	from R3-12-47-3_node_1587;
	to R3-12-47-3_node_1586;
	current_limit 3000.0;
	status CLOSED;
}

object fuse:9870 {
	name R3-12-47-3_fuse_70;
	phases "BCN";
	from R3-12-47-3_node_1600;
	to R3-12-47-3_node_1601;
	current_limit 3000.0;
	status CLOSED;
}

object fuse:9871 {
	name R3-12-47-3_fuse_71;
	phases "BCN";
	from R3-12-47-3_node_1604;
	to R3-12-47-3_node_1603;
	current_limit 3000.0;
	status CLOSED;
}

object fuse:9872 {
	name R3-12-47-3_fuse_72;
	phases "BCN";
	from R3-12-47-3_node_1612;
	to R3-12-47-3_node_1613;
	current_limit 3000.0;
	status CLOSED;
}

object fuse:9873 {
	name R3-12-47-3_fuse_73;
	phases "ACN";
	from R3-12-47-3_node_1624;
	to R3-12-47-3_node_1625;
	current_limit 3000.0;
	status CLOSED;
}

object fuse:9874 {
	name R3-12-47-3_fuse_74;
	phases "BCN";
	from R3-12-47-3_node_516;
	to R3-12-47-3_node_515;
	current_limit 3000.0;
	status CLOSED;
}

object fuse:9875 {
	name R3-12-47-3_fuse_75;
	phases "ABCN";
	from R3-12-47-3_node_59;
	to R3-12-47-3_node_60;
	current_limit 3000.0;
	status CLOSED;
}

object fuse:9876 {
	name R3-12-47-3_fuse_76;
	phases "BCN";
	from R3-12-47-3_node_539;
	to R3-12-47-3_node_540;
	current_limit 3000.0;
	status CLOSED;
}

object fuse:9877 {
	name R3-12-47-3_fuse_77;
	phases "ABN";
	from R3-12-47-3_node_558;
	to R3-12-47-3_node_559;
	current_limit 3000.0;
	status CLOSED;
}

object fuse:9878 {
	name R3-12-47-3_fuse_78;
	phases "ABN";
	from R3-12-47-3_node_561;
	to R3-12-47-3_node_562;
	current_limit 3000.0;
	status CLOSED;
}

object fuse:9879 {
	name R3-12-47-3_fuse_79;
	phases "ABN";
	from R3-12-47-3_node_564;
	to R3-12-47-3_node_563;
	current_limit 3000.0;
	status CLOSED;
}

object fuse:9880 {
	name R3-12-47-3_fuse_80;
	phases "BCN";
	from R3-12-47-3_node_576;
	to R3-12-47-3_node_575;
	current_limit 3000.0;
	status CLOSED;
}

object fuse:9881 {
	name R3-12-47-3_fuse_81;
	phases "ABCN";
	from R3-12-47-3_node_593;
	to R3-12-47-3_node_594;
	current_limit 3000.0;
	status CLOSED;
}

object fuse:9882 {
	name R3-12-47-3_fuse_82;
	phases "ABN";
	from R3-12-47-3_node_1657;
	to R3-12-47-3_node_1658;
	current_limit 3000.0;
	status CLOSED;
}

object fuse:9883 {
	name R3-12-47-3_fuse_83;
	phases "ABN";
	from R3-12-47-3_node_1662;
	to R3-12-47-3_node_1661;
	current_limit 3000.0;
	status CLOSED;
}

object fuse:9884 {
	name R3-12-47-3_fuse_84;
	phases "ABN";
	from R3-12-47-3_node_1682;
	to R3-12-47-3_node_1683;
	current_limit 3000.0;
	status CLOSED;
}

object fuse:9885 {
	name R3-12-47-3_fuse_85;
	phases "ABN";
	from R3-12-47-3_node_1688;
	to R3-12-47-3_node_1689;
	current_limit 3000.0;
	status CLOSED;
}

object fuse:9886 {
	name R3-12-47-3_fuse_86;
	phases "ABN";
	from R3-12-47-3_node_69;
	to R3-12-47-3_node_70;
	current_limit 3000.0;
	status CLOSED;
}

object fuse:9887 {
	name R3-12-47-3_fuse_87;
	phases "BCN";
	from R3-12-47-3_node_673;
	to R3-12-47-3_node_672;
	current_limit 3000.0;
	status CLOSED;
}

object fuse:9888 {
	name R3-12-47-3_fuse_88;
	phases "ABCN";
	from R3-12-47-3_node_681;
	to R3-12-47-3_node_682;
	current_limit 3000.0;
	status CLOSED;
}

object fuse:9889 {
	name R3-12-47-3_fuse_89;
	phases "BCN";
	from R3-12-47-3_node_687;
	to R3-12-47-3_node_686;
	current_limit 3000.0;
	status CLOSED;
}

object fuse:9890 {
	name R3-12-47-3_fuse_90;
	phases "BCN";
	from R3-12-47-3_node_716;
	to R3-12-47-3_node_715;
	current_limit 3000.0;
	status CLOSED;
}

object fuse:9891 {
	name R3-12-47-3_fuse_91;
	phases "BCN";
	from R3-12-47-3_node_730;
	to R3-12-47-3_node_729;
	current_limit 3000.0;
	status CLOSED;
}

object fuse:9892 {
	name R3-12-47-3_fuse_92;
	phases "BCN";
	from R3-12-47-3_node_735;
	to R3-12-47-3_node_734;
	current_limit 3000.0;
	status CLOSED;
}

object fuse:9893 {
	name R3-12-47-3_fuse_93;
	phases "ABN";
	from R3-12-47-3_node_747;
	to R3-12-47-3_node_748;
	current_limit 3000.0;
	status CLOSED;
}

object fuse:9894 {
	name R3-12-47-3_fuse_94;
	phases "ABN";
	from R3-12-47-3_node_750;
	to R3-12-47-3_node_749;
	current_limit 3000.0;
	status CLOSED;
}

object fuse:9895 {
	name R3-12-47-3_fuse_95;
	phases "ACN";
	from R3-12-47-3_node_1703;
	to R3-12-47-3_node_1702;
	current_limit 3000.0;
	status CLOSED;
}

object fuse:9896 {
	name R3-12-47-3_fuse_96;
	phases "ACN";
	from R3-12-47-3_node_757;
	to R3-12-47-3_node_758;
	current_limit 3000.0;
	status CLOSED;
}

object fuse:9897 {
	name R3-12-47-3_fuse_97;
	phases "ABCN";
	from R3-12-47-3_node_82;
	to R3-12-47-3_node_83;
	current_limit 3000.0;
	status CLOSED;
}

object fuse:9898 {
	name R3-12-47-3_fuse_98;
	phases "ABN";
	from R3-12-47-3_node_781;
	to R3-12-47-3_node_782;
	current_limit 3000.0;
	status CLOSED;
}

object fuse:9899 {
	name R3-12-47-3_fuse_99;
	phases "ACN";
	from R3-12-47-3_node_1711;
	to R3-12-47-3_node_1712;
	current_limit 3000.0;
	status CLOSED;
}

object fuse:9900 {
	name R3-12-47-3_fuse_100;
	phases "ABN";
	from R3-12-47-3_node_1716;
	to R3-12-47-3_node_1715;
	current_limit 3000.0;
	status CLOSED;
}

object fuse:9901 {
	name R3-12-47-3_fuse_101;
	phases "ABN";
	from R3-12-47-3_node_1721;
	to R3-12-47-3_node_1722;
	current_limit 3000.0;
	status CLOSED;
}

object fuse:9902 {
	name R3-12-47-3_fuse_102;
	phases "BCN";
	from R3-12-47-3_node_820;
	to R3-12-47-3_node_819;
	current_limit 3000.0;
	status CLOSED;
}

object fuse:9903 {
	name R3-12-47-3_fuse_103;
	phases "BCN";
	from R3-12-47-3_node_828;
	to R3-12-47-3_node_827;
	current_limit 3000.0;
	status CLOSED;
}

object fuse:9904 {
	name R3-12-47-3_fuse_104;
	phases "ACN";
	from R3-12-47-3_node_90;
	to R3-12-47-3_node_91;
	current_limit 3000.0;
	status CLOSED;
}

object fuse:9905 {
	name R3-12-47-3_fuse_105;
	phases "AN";
	from R3-12-47-3_node_840;
	to R3-12-47-3_node_839;
	current_limit 3000.0;
	status CLOSED;
}

object fuse:9906 {
	name R3-12-47-3_fuse_106;
	phases "ABCN";
	from R3-12-47-3_node_1737;
	to R3-12-47-3_node_1736;
	current_limit 3000.0;
	status CLOSED;
}

object fuse:9907 {
	name R3-12-47-3_fuse_107;
	phases "ABCN";
	from R3-12-47-3_node_879;
	to R3-12-47-3_node_878;
	current_limit 3000.0;
	status CLOSED;
}

object fuse:9908 {
	name R3-12-47-3_fuse_108;
	phases "BCN";
	from R3-12-47-3_node_882;
	to R3-12-47-3_node_883;
	current_limit 3000.0;
	status CLOSED;
}

object fuse:9909 {
	name R3-12-47-3_fuse_109;
	phases "ABN";
	from R3-12-47-3_node_1749;
	to R3-12-47-3_node_1750;
	current_limit 3000.0;
	status CLOSED;
}

object fuse:9910 {
	name R3-12-47-3_fuse_110;
	phases "ABN";
	from R3-12-47-3_node_1756;
	to R3-12-47-3_node_1757;
	current_limit 3000.0;
	status CLOSED;
}

object fuse:9911 {
	name R3-12-47-3_fuse_111;
	phases "ABCN";
	from R3-12-47-3_node_899;
	to R3-12-47-3_node_898;
	current_limit 3000.0;
	status CLOSED;
}

object fuse:9912 {
	name R3-12-47-3_fuse_112;
	phases "ABCN";
	from R3-12-47-3_node_1764;
	to R3-12-47-3_node_1763;
	current_limit 3000.0;
	status CLOSED;
}

object fuse:9913 {
	name R3-12-47-3_fuse_113;
	phases "ABCN";
	from R3-12-47-3_node_1769;
	to R3-12-47-3_node_1768;
	current_limit 3000.0;
	status CLOSED;
}

object fuse:9914 {
	name R3-12-47-3_fuse_114;
	phases "ABN";
	from R3-12-47-3_node_1792;
	to R3-12-47-3_node_1791;
	current_limit 3000.0;
	status CLOSED;
}

object fuse:9915 {
	name R3-12-47-3_fuse_115;
	phases "ABN";
	from R3-12-47-3_node_1799;
	to R3-12-47-3_node_1798;
	current_limit 3000.0;
	status CLOSED;
}

object fuse:9916 {
	name R3-12-47-3_fuse_116;
	phases "ABN";
	from R3-12-47-3_node_1814;
	to R3-12-47-3_node_1815;
	current_limit 3000.0;
	status CLOSED;
}

object fuse:9917 {
	name R3-12-47-3_fuse_117;
	phases "ABN";
	from R3-12-47-3_node_929;
	to R3-12-47-3_node_930;
	current_limit 3000.0;
	status CLOSED;
}

object fuse:9918 {
	name R3-12-47-3_fuse_118;
	phases "ABN";
	from R3-12-47-3_node_944;
	to R3-12-47-3_node_945;
	current_limit 3000.0;
	status CLOSED;
}

object fuse:9919 {
	name R3-12-47-3_fuse_119;
	phases "BCN";
	from R3-12-47-3_node_950;
	to R3-12-47-3_node_951;
	current_limit 3000.0;
	status CLOSED;
}

object fuse:9920 {
	name R3-12-47-3_fuse_120;
	phases "ABN";
	from R3-12-47-3_node_1820;
	to R3-12-47-3_node_1821;
	current_limit 3000.0;
	status CLOSED;
}

object fuse:9921 {
	name R3-12-47-3_fuse_121;
	phases "ABCN";
	from R3-12-47-3_node_962;
	to R3-12-47-3_node_963;
	current_limit 3000.0;
	status CLOSED;
}

object fuse:9922 {
	name R3-12-47-3_fuse_122;
	phases "BCN";
	from R3-12-47-3_node_971;
	to R3-12-47-3_node_970;
	current_limit 3000.0;
	status CLOSED;
}

object fuse:9923 {
	name R3-12-47-3_fuse_123;
	phases "BCN";
	from R3-12-47-3_node_981;
	to R3-12-47-3_node_980;
	current_limit 3000.0;
	status CLOSED;
}

object fuse:9924 {
	name R3-12-47-3_fuse_124;
	phases "ACN";
	from R3-12-47-3_node_1841;
	to R3-12-47-3_node_1842;
	current_limit 3000.0;
	status CLOSED;
}

object fuse:9925 {
	name R3-12-47-3_fuse_125;
	phases "ABCN";
	from R3-12-47-3_node_1846;
	to R3-12-47-3_node_1847;
	current_limit 3000.0;
	status CLOSED;
}

object fuse:9926 {
	name R3-12-47-3_fuse_126;
	phases "CN";
	from R3-12-47-3_node_993;
	to R3-12-47-3_node_992;
	current_limit 3000.0;
	status CLOSED;
}

object fuse:9927 {
	name R3-12-47-3_fuse_127;
	phases "ABN";
	from R3-12-47-3_node_996;
	to R3-12-47-3_node_995;
	current_limit 3000.0;
	status CLOSED;
}

object fuse:9928 {
	name R3-12-47-3_fuse_128;
	phases "ABN";
	from R3-12-47-3_node_1878;
	to R3-12-47-3_node_1879;
	current_limit 3000.0;
	status CLOSED;
}

object fuse:9929 {
	name R3-12-47-3_fuse_129;
	phases "AN";
	from R3-12-47-3_node_997;
	to R3-12-47-3_node_998;
	current_limit 3000.0;
	status CLOSED;
}

object fuse:9930 {
	name R3-12-47-3_fuse_130;
	phases "ABCN";
	from R3-12-47-3_node_1886;
	to R3-12-47-3_node_1887;
	current_limit 3000.0;
	status CLOSED;
}

object fuse:9931 {
	name R3-12-47-3_fuse_131;
	phases "ABCN";
	from R3-12-47-3_node_1889;
	to R3-12-47-3_node_1890;
	current_limit 3000.0;
	status CLOSED;
}

object fuse:9932 {
	name R3-12-47-3_fuse_132;
	phases "ABCN";
	from R3-12-47-3_node_1907;
	to R3-12-47-3_node_1906;
	current_limit 3000.0;
	status CLOSED;
}

object fuse:9933 {
	name R3-12-47-3_fuse_133;
	phases "ABN";
	from R3-12-47-3_node_1927;
	to R3-12-47-3_node_1926;
	current_limit 3000.0;
	status CLOSED;
}

object fuse:9934 {
	name R3-12-47-3_fuse_134;
	phases "ACN";
	from R3-12-47-3_node_1936;
	to R3-12-47-3_node_1935;
	current_limit 3000.0;
	status CLOSED;
}

object fuse:9935 {
	name R3-12-47-3_fuse_135;
	phases "ABCN";
	from R3-12-47-3_node_109;
	to R3-12-47-3_node_110;
	current_limit 3000.0;
	status CLOSED;
}

object fuse:9936 {
	name R3-12-47-3_fuse_136;
	phases "ABCN";
	from R3-12-47-3_node_1953;
	to R3-12-47-3_node_1954;
	current_limit 3000.0;
	status CLOSED;
}

object fuse:9937 {
	name R3-12-47-3_fuse_137;
	phases "BCN";
	from R3-12-47-3_node_1016;
	to R3-12-47-3_node_1017;
	current_limit 3000.0;
	status CLOSED;
}

object fuse:9938 {
	name R3-12-47-3_fuse_138;
	phases "BCN";
	from R3-12-47-3_node_1033;
	to R3-12-47-3_node_1032;
	current_limit 3000.0;
	status CLOSED;
}

object fuse:9939 {
	name R3-12-47-3_fuse_139;
	phases "BCN";
	from R3-12-47-3_node_1035;
	to R3-12-47-3_node_1036;
	current_limit 3000.0;
	status CLOSED;
}

object fuse:9940 {
	name R3-12-47-3_fuse_140;
	phases "BCN";
	from R3-12-47-3_node_1079;
	to R3-12-47-3_node_1078;
	current_limit 3000.0;
	status CLOSED;
}


object line_configuration:7909 {
	conductor_A overhead_line_conductor:23;
	conductor_B overhead_line_conductor:23;
	conductor_C overhead_line_conductor:23;
	conductor_N overhead_line_conductor:23;
	spacing line_spacing:7908;
}

object line_configuration:7910 {
	conductor_A overhead_line_conductor:14;
	conductor_B overhead_line_conductor:14;
	conductor_C overhead_line_conductor:14;
	conductor_N overhead_line_conductor:14;
	spacing line_spacing:7908;
}

object line_configuration:7912 {
	conductor_A overhead_line_conductor:14;
	conductor_C overhead_line_conductor:14;
	conductor_N overhead_line_conductor:14;
	spacing line_spacing:7911;
}

object line_configuration:7913 {
	conductor_A underground_line_conductor:41;
	conductor_C underground_line_conductor:41;
	conductor_N underground_line_conductor:41;
	spacing line_spacing:7911;
}

object line_configuration:7915 {
	conductor_B overhead_line_conductor:14;
	conductor_C overhead_line_conductor:14;
	conductor_N overhead_line_conductor:14;
	spacing line_spacing:7914;
}

object line_configuration:7916 {
	conductor_A underground_line_conductor:46;
	conductor_B underground_line_conductor:46;
	conductor_C underground_line_conductor:46;
	conductor_N underground_line_conductor:46;
	spacing line_spacing:7908;
}

object line_configuration:7917 {
	conductor_A underground_line_conductor:45;
	conductor_B underground_line_conductor:45;
	conductor_C underground_line_conductor:45;
	conductor_N underground_line_conductor:45;
	spacing line_spacing:7908;
}

object line_configuration:7918 {
	conductor_B underground_line_conductor:43;
	conductor_C underground_line_conductor:43;
	conductor_N underground_line_conductor:43;
	spacing line_spacing:7914;
}

object line_configuration:7919 {
	conductor_A overhead_line_conductor:11;
	conductor_B overhead_line_conductor:11;
	conductor_C overhead_line_conductor:11;
	conductor_N overhead_line_conductor:11;
	spacing line_spacing:7908;
}

object line_configuration:7920 {
	conductor_A underground_line_conductor:43;
	conductor_B underground_line_conductor:43;
	conductor_C underground_line_conductor:43;
	conductor_N underground_line_conductor:43;
	spacing line_spacing:7908;
}

object line_configuration:7922 {
	conductor_A overhead_line_conductor:11;
	conductor_B overhead_line_conductor:11;
	conductor_N overhead_line_conductor:11;
	spacing line_spacing:7921;
}

object line_configuration:7923 {
	conductor_A underground_line_conductor:42;
	conductor_C underground_line_conductor:42;
	conductor_N underground_line_conductor:42;
	spacing line_spacing:7911;
}

object line_configuration:7924 {
	conductor_A overhead_line_conductor:11;
	conductor_C overhead_line_conductor:11;
	conductor_N overhead_line_conductor:11;
	spacing line_spacing:7911;
}

object line_configuration:7925 {
	conductor_A overhead_line_conductor:18;
	conductor_C overhead_line_conductor:18;
	conductor_N overhead_line_conductor:18;
	spacing line_spacing:7911;
}

object line_configuration:7927 {
	conductor_C underground_line_conductor:41;
	conductor_N underground_line_conductor:41;
	spacing line_spacing:7926;
}

object line_configuration:7929 {
	conductor_B underground_line_conductor:41;
	conductor_N underground_line_conductor:41;
	spacing line_spacing:7928;
}

object line_configuration:7930 {
	conductor_A overhead_line_conductor:14;
	conductor_B overhead_line_conductor:14;
	conductor_N overhead_line_conductor:14;
	spacing line_spacing:7921;
}

object line_configuration:7931 {
	conductor_B underground_line_conductor:42;
	conductor_N underground_line_conductor:42;
	spacing line_spacing:7928;
}

object line_configuration:7933 {
	conductor_A underground_line_conductor:41;
	conductor_N underground_line_conductor:41;
	spacing line_spacing:7932;
}

object line_configuration:7934 {
	conductor_C underground_line_conductor:43;
	conductor_N underground_line_conductor:43;
	spacing line_spacing:7926;
}

object line_configuration:7935 {
	conductor_B overhead_line_conductor:11;
	conductor_C overhead_line_conductor:11;
	conductor_N overhead_line_conductor:11;
	spacing line_spacing:7914;
}

object line_configuration:7936 {
	conductor_A overhead_line_conductor:38;
	conductor_B overhead_line_conductor:38;
	conductor_C overhead_line_conductor:38;
	conductor_N overhead_line_conductor:38;
	spacing line_spacing:7908;
}

object line_configuration:7937 {
	conductor_A underground_line_conductor:41;
	conductor_B underground_line_conductor:41;
	conductor_C underground_line_conductor:41;
	conductor_N underground_line_conductor:41;
	spacing line_spacing:7908;
}

object line_configuration:7938 {
	conductor_B underground_line_conductor:43;
	conductor_N underground_line_conductor:43;
	spacing line_spacing:7928;
}

object line_configuration:7939 {
	conductor_A underground_line_conductor:42;
	conductor_N underground_line_conductor:42;
	spacing line_spacing:7932;
}

object line_configuration:7940 {
	conductor_B overhead_line_conductor:18;
	conductor_C overhead_line_conductor:18;
	conductor_N overhead_line_conductor:18;
	spacing line_spacing:7914;
}

object line_configuration:7941 {
	conductor_B underground_line_conductor:42;
	conductor_C underground_line_conductor:42;
	conductor_N underground_line_conductor:42;
	spacing line_spacing:7914;
}

object line_configuration:7942 {
	conductor_C underground_line_conductor:42;
	conductor_N underground_line_conductor:42;
	spacing line_spacing:7926;
}

object line_configuration:7943 {
	conductor_B underground_line_conductor:41;
	conductor_C underground_line_conductor:41;
	conductor_N underground_line_conductor:41;
	spacing line_spacing:7914;
}

object line_configuration:7944 {
	conductor_A underground_line_conductor:41;
	conductor_B underground_line_conductor:41;
	conductor_N underground_line_conductor:41;
	spacing line_spacing:7921;
}

object line_configuration:7945 {
	conductor_A underground_line_conductor:42;
	conductor_B underground_line_conductor:42;
	conductor_N underground_line_conductor:42;
	spacing line_spacing:7921;
}

object line_configuration:7946 {
	conductor_B overhead_line_conductor:11;
	conductor_N overhead_line_conductor:11;
	spacing line_spacing:7928;
}

object line_configuration:7947 {
	conductor_C overhead_line_conductor:14;
	conductor_N overhead_line_conductor:14;
	spacing line_spacing:7926;
}

object line_configuration:7948 {
	conductor_A overhead_line_conductor:29;
	conductor_B overhead_line_conductor:29;
	conductor_C overhead_line_conductor:29;
	conductor_N overhead_line_conductor:29;
	spacing line_spacing:7908;
}
