// $Id: R3-12.47-1.glm 228 2009-05-27 18:16:10Z ychen $ 
//*********************************************

clock { 
	 timezone MST+7MDT;
	 timestamp '2000-01-01 0:00:00';
}

//*********************************************
// modules
module powerflow;


object fuse:2968 {
	name R3-12-47-1_fuse_1;
	phases "ABCN";
	from R3-12-47-1_node_14;
	to R3-12-47-1_node_15;
	current_limit 3000.0;
	status CLOSED;
}

object fuse:2969 {
	name R3-12-47-1_fuse_2;
	phases "ABCN";
	from R3-12-47-1_node_17;
	to R3-12-47-1_node_18;
	current_limit 3000.0;
	status CLOSED;
}

object fuse:2970 {
	name R3-12-47-1_fuse_3;
	phases "ABCN";
	from R3-12-47-1_node_88;
	to R3-12-47-1_node_87;
	current_limit 3000.0;
	status CLOSED;
}

object fuse:2971 {
	name R3-12-47-1_fuse_4;
	phases "ABCN";
	from R3-12-47-1_node_100;
	to R3-12-47-1_node_101;
	current_limit 3000.0;
	status CLOSED;
}

object fuse:2972 {
	name R3-12-47-1_fuse_5;
	phases "ABCN";
	from R3-12-47-1_node_116;
	to R3-12-47-1_node_115;
	current_limit 3000.0;
	status CLOSED;
}

object fuse:2973 {
	name R3-12-47-1_fuse_6;
	phases "ABCN";
	from R3-12-47-1_node_131;
	to R3-12-47-1_node_132;
	current_limit 3000.0;
	status CLOSED;
}

object fuse:2974 {
	name R3-12-47-1_fuse_7;
	phases "ABCN";
	from R3-12-47-1_node_154;
	to R3-12-47-1_node_155;
	current_limit 3000.0;
	status CLOSED;
}

object fuse:2975 {
	name R3-12-47-1_fuse_8;
	phases "ABCN";
	from R3-12-47-1_node_161;
	to R3-12-47-1_node_160;
	current_limit 3000.0;
	status CLOSED;
}

object fuse:2976 {
	name R3-12-47-1_fuse_9;
	phases "ABCN";
	from R3-12-47-1_node_166;
	to R3-12-47-1_node_165;
	current_limit 3000.0;
	status CLOSED;
}

object fuse:2977 {
	name R3-12-47-1_fuse_10;
	phases "ABCN";
	from R3-12-47-1_node_174;
	to R3-12-47-1_node_175;
	current_limit 3000.0;
	status CLOSED;
}

object fuse:2978 {
	name R3-12-47-1_fuse_11;
	phases "ABCN";
	from R3-12-47-1_node_184;
	to R3-12-47-1_node_185;
	current_limit 3000.0;
	status CLOSED;
}

object fuse:2979 {
	name R3-12-47-1_fuse_12;
	phases "ABCN";
	from R3-12-47-1_node_188;
	to R3-12-47-1_node_189;
	current_limit 3000.0;
	status CLOSED;
}

object fuse:2980 {
	name R3-12-47-1_fuse_13;
	phases "ABCN";
	from R3-12-47-1_node_192;
	to R3-12-47-1_node_191;
	current_limit 3000.0;
	status CLOSED;
}

object fuse:2981 {
	name R3-12-47-1_fuse_14;
	phases "ABCN";
	from R3-12-47-1_node_215;
	to R3-12-47-1_node_214;
	current_limit 3000.0;
	status CLOSED;
}

object fuse:2982 {
	name R3-12-47-1_fuse_15;
	phases "ABCN";
	from R3-12-47-1_node_63;
	to R3-12-47-1_node_62;
	current_limit 3000.0;
	status CLOSED;
}

object fuse:2983 {
	name R3-12-47-1_fuse_16;
	phases "ABCN";
	from R3-12-47-1_node_226;
	to R3-12-47-1_node_225;
	current_limit 3000.0;
	status CLOSED;
}

object fuse:2984 {
	name R3-12-47-1_fuse_17;
	phases "ABCN";
	from R3-12-47-1_node_257;
	to R3-12-47-1_node_256;
	current_limit 3000.0;
	status CLOSED;
}

object fuse:2985 {
	name R3-12-47-1_fuse_18;
	phases "ABCN";
	from R3-12-47-1_node_271;
	to R3-12-47-1_node_270;
	current_limit 3000.0;
	status CLOSED;
}

object fuse:2986 {
	name R3-12-47-1_fuse_19;
	phases "ABCN";
	from R3-12-47-1_node_295;
	to R3-12-47-1_node_294;
	current_limit 3000.0;
	status CLOSED;
}

object fuse:2987 {
	name R3-12-47-1_fuse_20;
	phases "ABCN";
	from R3-12-47-1_node_297;
	to R3-12-47-1_node_298;
	current_limit 3000.0;
	status CLOSED;
}

object fuse:2988 {
	name R3-12-47-1_fuse_21;
	phases "ABN";
	from R3-12-47-1_node_307;
	to R3-12-47-1_node_306;
	current_limit 3000.0;
	status CLOSED;
}

object fuse:2989 {
	name R3-12-47-1_fuse_22;
	phases "ABCN";
	from R3-12-47-1_node_314;
	to R3-12-47-1_node_315;
	current_limit 3000.0;
	status CLOSED;
}

object fuse:2990 {
	name R3-12-47-1_fuse_23;
	phases "ABCN";
	from R3-12-47-1_node_323;
	to R3-12-47-1_node_322;
	current_limit 3000.0;
	status CLOSED;
}

object fuse:2991 {
	name R3-12-47-1_fuse_24;
	phases "ACN";
	from R3-12-47-1_node_339;
	to R3-12-47-1_node_338;
	current_limit 3000.0;
	status CLOSED;
}

object fuse:2992 {
	name R3-12-47-1_fuse_25;
	phases "BCN";
	from R3-12-47-1_node_345;
	to R3-12-47-1_node_344;
	current_limit 3000.0;
	status CLOSED;
}

object fuse:2993 {
	name R3-12-47-1_fuse_26;
	phases "ABCN";
	from R3-12-47-1_node_353;
	to R3-12-47-1_node_352;
	current_limit 3000.0;
	status CLOSED;
}

object fuse:2994 {
	name R3-12-47-1_fuse_27;
	phases "ABCN";
	from R3-12-47-1_node_360;
	to R3-12-47-1_node_361;
	current_limit 3000.0;
	status CLOSED;
}

object fuse:2995 {
	name R3-12-47-1_fuse_28;
	phases "ABN";
	from R3-12-47-1_node_375;
	to R3-12-47-1_node_376;
	current_limit 3000.0;
	status CLOSED;
}

object fuse:2996 {
	name R3-12-47-1_fuse_29;
	phases "ABCN";
	from R3-12-47-1_node_397;
	to R3-12-47-1_node_398;
	current_limit 3000.0;
	status CLOSED;
}

object fuse:2997 {
	name R3-12-47-1_fuse_30;
	phases "ABCN";
	from R3-12-47-1_node_400;
	to R3-12-47-1_node_401;
	current_limit 3000.0;
	status CLOSED;
}

object fuse:2998 {
	name R3-12-47-1_fuse_31;
	phases "ABCN";
	from R3-12-47-1_node_400;
	to R3-12-47-1_node_399;
	current_limit 3000.0;
	status CLOSED;
}

object fuse:2999 {
	name R3-12-47-1_fuse_32;
	phases "ABCN";
	from R3-12-47-1_node_406;
	to R3-12-47-1_node_405;
	current_limit 3000.0;
	status CLOSED;
}

object fuse:3000 {
	name R3-12-47-1_fuse_33;
	phases "ABCN";
	from R3-12-47-1_node_406;
	to R3-12-47-1_node_404;
	current_limit 3000.0;
	status CLOSED;
}

object fuse:3001 {
	name R3-12-47-1_fuse_34;
	phases "ABCN";
	from R3-12-47-1_node_410;
	to R3-12-47-1_node_411;
	current_limit 3000.0;
	status CLOSED;
}

object fuse:3002 {
	name R3-12-47-1_fuse_35;
	phases "ABCN";
	from R3-12-47-1_node_413;
	to R3-12-47-1_node_414;
	current_limit 3000.0;
	status CLOSED;
}

object fuse:3003 {
	name R3-12-47-1_fuse_36;
	phases "ABCN";
	from R3-12-47-1_node_420;
	to R3-12-47-1_node_419;
	current_limit 3000.0;
	status CLOSED;
}

object fuse:3004 {
	name R3-12-47-1_fuse_37;
	phases "ABCN";
	from R3-12-47-1_node_456;
	to R3-12-47-1_node_455;
	current_limit 3000.0;
	status CLOSED;
}

object fuse:3005 {
	name R3-12-47-1_fuse_38;
	phases "ACN";
	from R3-12-47-1_node_474;
	to R3-12-47-1_node_475;
	current_limit 3000.0;
	status CLOSED;
}

object fuse:3006 {
	name R3-12-47-1_fuse_39;
	phases "ABCN";
	from R3-12-47-1_node_479;
	to R3-12-47-1_node_478;
	current_limit 3000.0;
	status CLOSED;
}

object fuse:3007 {
	name R3-12-47-1_fuse_40;
	phases "ABCN";
	from R3-12-47-1_node_485;
	to R3-12-47-1_node_486;
	current_limit 3000.0;
	status CLOSED;
}

object fuse:3008 {
	name R3-12-47-1_fuse_41;
	phases "ACN";
	from R3-12-47-1_node_494;
	to R3-12-47-1_node_493;
	current_limit 3000.0;
	status CLOSED;
}

object fuse:3009 {
	name R3-12-47-1_fuse_42;
	phases "ACN";
	from R3-12-47-1_node_506;
	to R3-12-47-1_node_505;
	current_limit 3000.0;
	status CLOSED;
}

object fuse:3010 {
	name R3-12-47-1_fuse_43;
	phases "ABCN";
	from R3-12-47-1_node_32;
	to R3-12-47-1_node_31;
	current_limit 3000.0;
	status CLOSED;
}

object fuse:3011 {
	name R3-12-47-1_fuse_44;
	phases "ABCN";
	from R3-12-47-1_node_539;
	to R3-12-47-1_node_540;
	current_limit 3000.0;
	status CLOSED;
}

object fuse:3012 {
	name R3-12-47-1_fuse_45;
	phases "ABCN";
	from R3-12-47-1_node_553;
	to R3-12-47-1_node_554;
	current_limit 3000.0;
	status CLOSED;
}

object fuse:3013 {
	name R3-12-47-1_fuse_46;
	phases "ABCN";
	from R3-12-47-1_node_40;
	to R3-12-47-1_node_39;
	current_limit 3000.0;
	status CLOSED;
}

object fuse:3014 {
	name R3-12-47-1_fuse_47;
	phases "ABCN";
	from R3-12-47-1_node_564;
	to R3-12-47-1_node_563;
	current_limit 3000.0;
	status CLOSED;
}

object fuse:3015 {
	name R3-12-47-1_fuse_48;
	phases "ABCN";
	from R3-12-47-1_node_567;
	to R3-12-47-1_node_566;
	current_limit 3000.0;
	status CLOSED;
}

object fuse:3016 {
	name R3-12-47-1_fuse_49;
	phases "ABCN";
	from R3-12-47-1_node_570;
	to R3-12-47-1_node_571;
	current_limit 3000.0;
	status CLOSED;
}

object fuse:3017 {
	name R3-12-47-1_fuse_50;
	phases "ABCN";
	from R3-12-47-1_node_574;
	to R3-12-47-1_node_573;
	current_limit 3000.0;
	status CLOSED;
}

object fuse:3018 {
	name R3-12-47-1_fuse_51;
	phases "ABCN";
	from R3-12-47-1_node_3;
	to R3-12-47-1_node_2;
	current_limit 3000.0;
	status CLOSED;
}

object fuse:3019 {
	name R3-12-47-1_fuse_52;
	phases "ABCN";
	from R3-12-47-1_node_578;
	to R3-12-47-1_node_577;
	current_limit 3000.0;
	status CLOSED;
}

object fuse:3020 {
	name R3-12-47-1_fuse_53;
	phases "ABCN";
	from R3-12-47-1_node_49;
	to R3-12-47-1_node_50;
	current_limit 3000.0;
	status CLOSED;
}

object fuse:3021 {
	name R3-12-47-1_fuse_54;
	phases "ABCN";
	from R3-12-47-1_node_54;
	to R3-12-47-1_node_55;
	current_limit 3000.0;
	status CLOSED;
}

object fuse:3022 {
	name R3-12-47-1_fuse_55;
	phases "ABCN";
	from R3-12-47-1_node_599;
	to R3-12-47-1_node_598;
	current_limit 3000.0;
	status CLOSED;
}

object fuse:3023 {
	name R3-12-47-1_fuse_56;
	phases "ABCN";
	from R3-12-47-1_node_605;
	to R3-12-47-1_node_604;
	current_limit 3000.0;
	status CLOSED;
}

object fuse:3024 {
	name R3-12-47-1_fuse_57;
	phases "ABCN";
	from R3-12-47-1_node_607;
	to R3-12-47-1_node_608;
	current_limit 3000.0;
	status CLOSED;
}

object fuse:3025 {
	name R3-12-47-1_fuse_58;
	phases "ABCN";
	from R3-12-47-1_node_614;
	to R3-12-47-1_node_615;
	current_limit 3000.0;
	status CLOSED;
}

object fuse:3026 {
	name R3-12-47-1_fuse_59;
	phases "ABCN";
	from R3-12-47-1_node_4;
	to R3-12-47-1_node_5;
	current_limit 3000.0;
	status CLOSED;
}

object fuse:3027 {
	name R3-12-47-1_fuse_60;
	phases "ABCN";
	from R3-12-47-1_node_628;
	to R3-12-47-1_node_629;
	current_limit 3000.0;
	status CLOSED;
}

object fuse:3028 {
	name R3-12-47-1_fuse_61;
	phases "ABCN";
	from R3-12-47-1_node_12;
	to R3-12-47-1_node_11;
	current_limit 3000.0;
	status CLOSED;
}


object line_configuration:2380 {
	conductor_A overhead_line_conductor:14;
	conductor_B overhead_line_conductor:14;
	conductor_C overhead_line_conductor:14;
	conductor_N overhead_line_conductor:14;
	spacing line_spacing:2379;
}

object line_configuration:2382 {
	conductor_A overhead_line_conductor:14;
	conductor_B overhead_line_conductor:14;
	conductor_N overhead_line_conductor:14;
	spacing line_spacing:2381;
}

object line_configuration:2384 {
	conductor_B overhead_line_conductor:14;
	conductor_C overhead_line_conductor:14;
	conductor_N overhead_line_conductor:14;
	spacing line_spacing:2383;
}

object line_configuration:2385 {
	conductor_A underground_line_conductor:41;
	conductor_B underground_line_conductor:41;
	conductor_C underground_line_conductor:41;
	conductor_N underground_line_conductor:41;
	spacing line_spacing:2379;
}

object line_configuration:2387 {
	conductor_A overhead_line_conductor:11;
	conductor_C overhead_line_conductor:11;
	conductor_N overhead_line_conductor:11;
	spacing line_spacing:2386;
}

object line_configuration:2388 {
	conductor_A underground_line_conductor:43;
	conductor_C underground_line_conductor:43;
	conductor_N underground_line_conductor:43;
	spacing line_spacing:2386;
}

object line_configuration:2389 {
	conductor_B underground_line_conductor:41;
	conductor_C underground_line_conductor:41;
	conductor_N underground_line_conductor:41;
	spacing line_spacing:2383;
}

object line_configuration:2390 {
	conductor_A underground_line_conductor:43;
	conductor_B underground_line_conductor:43;
	conductor_C underground_line_conductor:43;
	conductor_N underground_line_conductor:43;
	spacing line_spacing:2379;
}

object line_configuration:2391 {
	conductor_A underground_line_conductor:41;
	conductor_C underground_line_conductor:41;
	conductor_N underground_line_conductor:41;
	spacing line_spacing:2386;
}

object line_configuration:2392 {
	conductor_A overhead_line_conductor:23;
	conductor_C overhead_line_conductor:23;
	conductor_N overhead_line_conductor:23;
	spacing line_spacing:2386;
}

object line_configuration:2394 {
	conductor_A overhead_line_conductor:11;
	conductor_N overhead_line_conductor:11;
	spacing line_spacing:2393;
}

object line_configuration:2395 {
	conductor_A overhead_line_conductor:29;
	conductor_B overhead_line_conductor:29;
	conductor_C overhead_line_conductor:29;
	conductor_N overhead_line_conductor:29;
	spacing line_spacing:2379;
}

object line_configuration:2396 {
	conductor_A overhead_line_conductor:11;
	conductor_B overhead_line_conductor:11;
	conductor_C overhead_line_conductor:11;
	conductor_N overhead_line_conductor:11;
	spacing line_spacing:2379;
}

object line_configuration:2397 {
	conductor_A underground_line_conductor:46;
	conductor_B underground_line_conductor:46;
	conductor_C underground_line_conductor:46;
	conductor_N underground_line_conductor:46;
	spacing line_spacing:2379;
}

object line_configuration:2399 {
	conductor_B underground_line_conductor:41;
	conductor_N underground_line_conductor:41;
	spacing line_spacing:2398;
}

object line_configuration:2400 {
	conductor_A underground_line_conductor:41;
	conductor_N underground_line_conductor:41;
	spacing line_spacing:2393;
}

object line_configuration:2401 {
	conductor_A underground_line_conductor:41;
	conductor_B underground_line_conductor:41;
	conductor_N underground_line_conductor:41;
	spacing line_spacing:2381;
}

object line_configuration:2403 {
	conductor_C underground_line_conductor:41;
	conductor_N underground_line_conductor:41;
	spacing line_spacing:2402;
}

object line_configuration:2404 {
	conductor_A overhead_line_conductor:18;
	conductor_B overhead_line_conductor:18;
	conductor_C overhead_line_conductor:18;
	conductor_N overhead_line_conductor:18;
	spacing line_spacing:2379;
}

object line_configuration:2405 {
	conductor_B overhead_line_conductor:24;
	conductor_N overhead_line_conductor:24;
	spacing line_spacing:2398;
}

object line_configuration:2406 {
	conductor_A overhead_line_conductor:14;
	conductor_C overhead_line_conductor:14;
	conductor_N overhead_line_conductor:14;
	spacing line_spacing:2386;
}

object line_configuration:2407 {
	conductor_A underground_line_conductor:43;
	conductor_B underground_line_conductor:43;
	conductor_N underground_line_conductor:43;
	spacing line_spacing:2381;
}

object line_configuration:2408 {
	conductor_B overhead_line_conductor:11;
	conductor_C overhead_line_conductor:11;
	conductor_N overhead_line_conductor:11;
	spacing line_spacing:2383;
}

object line_configuration:2409 {
	conductor_A underground_line_conductor:48;
	conductor_B underground_line_conductor:48;
	conductor_C underground_line_conductor:48;
	conductor_N underground_line_conductor:48;
	spacing line_spacing:2379;
}

object line_configuration:2410 {
	conductor_A underground_line_conductor:49;
	conductor_B underground_line_conductor:49;
	conductor_C underground_line_conductor:49;
	conductor_N underground_line_conductor:49;
	spacing line_spacing:2379;
}

object line_configuration:2411 {
	conductor_A underground_line_conductor:45;
	conductor_B underground_line_conductor:45;
	conductor_C underground_line_conductor:45;
	conductor_N underground_line_conductor:45;
	spacing line_spacing:2379;
}

object line_configuration:2412 {
	conductor_A underground_line_conductor:42;
	conductor_B underground_line_conductor:42;
	conductor_C underground_line_conductor:42;
	conductor_N underground_line_conductor:42;
	spacing line_spacing:2379;
}

object line_configuration:2413 {
	conductor_A underground_line_conductor:42;
	conductor_B underground_line_conductor:42;
	conductor_N underground_line_conductor:42;
	spacing line_spacing:2381;
}

object line_configuration:2414 {
	conductor_A overhead_line_conductor:11;
	conductor_B overhead_line_conductor:11;
	conductor_N overhead_line_conductor:11;
	spacing line_spacing:2381;
}

object line_configuration:2415 {
	conductor_A overhead_line_conductor:24;
	conductor_B overhead_line_conductor:24;
	conductor_C overhead_line_conductor:24;
	conductor_N overhead_line_conductor:24;
	spacing line_spacing:2379;
}

object line_configuration:2416 {
	conductor_C overhead_line_conductor:11;
	conductor_N overhead_line_conductor:11;
	spacing line_spacing:2402;
}

object line_configuration:2417 {
	conductor_C overhead_line_conductor:24;
	conductor_N overhead_line_conductor:24;
	spacing line_spacing:2402;
}

object line_configuration:2418 {
	conductor_C overhead_line_conductor:14;
	conductor_N overhead_line_conductor:14;
	spacing line_spacing:2402;
}

object line_configuration:2419 {
	conductor_A underground_line_conductor:42;
	conductor_C underground_line_conductor:42;
	conductor_N underground_line_conductor:42;
	spacing line_spacing:2386;
}

object line_configuration:2420 {
	conductor_A underground_line_conductor:43;
	conductor_N underground_line_conductor:43;
	spacing line_spacing:2393;
}

object line_configuration:2421 {
	conductor_A overhead_line_conductor:18;
	conductor_N overhead_line_conductor:18;
	spacing line_spacing:2393;
}

object line_configuration:2422 {
	conductor_A overhead_line_conductor:23;
	conductor_B overhead_line_conductor:23;
	conductor_C overhead_line_conductor:23;
	conductor_N overhead_line_conductor:23;
	spacing line_spacing:2379;
}

object line_configuration:2423 {
	conductor_A overhead_line_conductor:38;
	conductor_B overhead_line_conductor:38;
	conductor_C overhead_line_conductor:38;
	conductor_N overhead_line_conductor:38;
	spacing line_spacing:2379;
}

object line_configuration:2424 {
	conductor_B underground_line_conductor:43;
	conductor_C underground_line_conductor:43;
	conductor_N underground_line_conductor:43;
	spacing line_spacing:2383;
}

object line_configuration:2425 {
	conductor_A underground_line_conductor:44;
	conductor_B underground_line_conductor:44;
	conductor_C underground_line_conductor:44;
	conductor_N underground_line_conductor:44;
	spacing line_spacing:2379;
}


object line_spacing:2379 {
	distance_AB 37.0 in;
	distance_BC 37.0 in;
	distance_AC 37.0 in;
	distance_AN 37.0 in;
	distance_BN 37.0 in;
	distance_CN 37.0 in;
}

object line_spacing:2381 {
	distance_AB 37.0 in;
	distance_AN 37.0 in;
	distance_BN 37.0 in;
}

object line_spacing:2383 {
	distance_BC 37.0 in;
	distance_BN 37.0 in;
	distance_CN 37.0 in;
}

object line_spacing:2386 {
	distance_AC 37.0 in;
	distance_AN 37.0 in;
	distance_CN 37.0 in;
}

object line_spacing:2393 {
	distance_AN 37.0 in;
}

object line_spacing:2398 {
	distance_BN 37.0 in;
}

object line_spacing:2402 {
	distance_CN 37.0 in;
}


object load {
	name R3-12-47-1_load_1;
	parent R3-12-47-1_meter_1;
	phases "ABCN";
	nominal_voltage 7199.558;
	voltage_A 7199.558+0.0j;
	voltage_B -3599.779-6235.000j;
	voltage_C -3599.779+6235.000j;
	constant_power_A 170000.000+105300.000j;
	constant_power_B 170000.000+105300.000j;
	constant_power_C 170000.000+105300.000j;
	load_class "C";
}

object load {
	name R3-12-47-1_load_2;
	parent R3-12-47-1_meter_2;
	phases "ABCN";
	nominal_voltage 7199.558;
	voltage_A 7199.558+0.0j;
	voltage_B -3599.779-6235.000j;
	voltage_C -3599.779+6235.000j;
	constant_power_A 35524.882+21604.075j;
	constant_power_B 35524.882+21604.075j;
	constant_power_C 35524.882+21604.075j;
	load_class "C";
}

object load {
	name R3-12-47-1_load_3;
	parent R3-12-47-1_meter_3;
	phases "ABCN";
	nominal_voltage 7199.558;
	voltage_A 7199.558+0.0j;
	voltage_B -3599.779-6235.000j;
	voltage_C -3599.779+6235.000j;
	constant_power_A 8870.821+5394.695j;
	constant_power_B 8870.821+5394.695j;
	constant_power_C 8870.821+5394.695j;
	load_class "C";
}

object load {
	name R3-12-47-1_load_4;
	parent R3-12-47-1_meter_4;
	phases "ABCN";
	nominal_voltage 7199.558;
	voltage_A 7199.558+0.0j;
	voltage_B -3599.779-6235.000j;
	voltage_C -3599.779+6235.000j;
	constant_power_A 8870.821+5394.695j;
	constant_power_B 8870.821+5394.695j;
	constant_power_C 8870.821+5394.695j;
	load_class "C";
}

object load {
	name R3-12-47-1_load_5;
	parent R3-12-47-1_meter_5;
	phases "ABCN";
	nominal_voltage 7199.558;
	voltage_A 7199.558+0.0j;
	voltage_B -3599.779-6235.000j;
	voltage_C -3599.779+6235.000j;
	constant_power_A 8870.821+5394.695j;
	constant_power_B 8870.821+5394.695j;
	constant_power_C 8870.821+5394.695j;
	load_class "C";
}

object load {
	name R3-12-47-1_load_6;
	parent R3-12-47-1_meter_6;
	phases "ABCN";
	nominal_voltage 7199.558;
	voltage_A 7199.558+0.0j;
	voltage_B -3599.779-6235.000j;
	voltage_C -3599.779+6235.000j;
	constant_power_A 41000.000+25400.000j;
	constant_power_B 41000.000+25400.000j;
	constant_power_C 41000.000+25400.000j;
	load_class "C";
}

object load {
	name R3-12-47-1_load_7;
	parent R3-12-47-1_meter_7;
	phases "ABCN";
	nominal_voltage 7199.558;
	voltage_A 7199.558+0.0j;
	voltage_B -3599.779-6235.000j;
	voltage_C -3599.779+6235.000j;
	constant_power_A 201700.000+125000.000j;
	constant_power_B 201700.000+125000.000j;
	constant_power_C 201700.000+125000.000j;
	load_class "C";
}

object load {
	name R3-12-47-1_load_8;
	parent R3-12-47-1_meter_8;
	phases "ABCN";
	nominal_voltage 7199.558;
	voltage_A 7199.558+0.0j;
	voltage_B -3599.779-6235.000j;
	voltage_C -3599.779+6235.000j;
	constant_power_A 35524.882+21604.075j;
	constant_power_B 35524.882+21604.075j;
	constant_power_C 35524.882+21604.075j;
	load_class "C";
}

object load {
	name R3-12-47-1_load_9;
	parent R3-12-47-1_meter_9;
	phases "ABCN";
	nominal_voltage 7199.558;
	voltage_A 7199.558+0.0j;
	voltage_B -3599.779-6235.000j;
	voltage_C -3599.779+6235.000j;
	constant_power_A 17753.088+10796.350j;
	constant_power_B 17753.088+10796.350j;
	constant_power_C 17753.088+10796.350j;
	load_class "C";
}

object load {
	name R3-12-47-1_load_10;
	parent R3-12-47-1_meter_10;
	phases "ABCN";
	nominal_voltage 7199.558;
	voltage_A 7199.558+0.0j;
	voltage_B -3599.779-6235.000j;
	voltage_C -3599.779+6235.000j;
	constant_power_A 26654.081+16209.393j;
	constant_power_B 26654.081+16209.393j;
	constant_power_C 26654.081+16209.393j;
	load_class "C";
}

object load {
	name R3-12-47-1_load_11;
	parent R3-12-47-1_meter_11;
	phases "ABCN";
	nominal_voltage 7199.558;
	voltage_A 7199.558+0.0j;
	voltage_B -3599.779-6235.000j;
	voltage_C -3599.779+6235.000j;
	constant_power_A 35524.882+21604.075j;
	constant_power_B 35524.882+21604.075j;
	constant_power_C 35524.882+21604.075j;
	load_class "C";
}

object load {
	name R3-12-47-1_load_12;
	parent R3-12-47-1_meter_12;
	phases "ABCN";
	nominal_voltage 7199.558;
	voltage_A 7199.558+0.0j;
	voltage_B -3599.779-6235.000j;
	voltage_C -3599.779+6235.000j;
	constant_power_A 8870.821+5394.695j;
	constant_power_B 8870.821+5394.695j;
	constant_power_C 8870.821+5394.695j;
	load_class "C";
}

object load {
	name R3-12-47-1_load_13;
	parent R3-12-47-1_meter_13;
	phases "ABCN";
	nominal_voltage 7199.558;
	voltage_A 7199.558+0.0j;
	voltage_B -3599.779-6235.000j;
	voltage_C -3599.779+6235.000j;
	constant_power_A 26654.081+16209.393j;
	constant_power_B 26654.081+16209.393j;
	constant_power_C 26654.081+16209.393j;
	load_class "C";
}

object load {
	name R3-12-47-1_load_14;
	parent R3-12-47-1_meter_14;
	phases "ABCN";
	nominal_voltage 7199.558;
	voltage_A 7199.558+0.0j;
	voltage_B -3599.779-6235.000j;
	voltage_C -3599.779+6235.000j;
	constant_power_A 17753.088+10796.350j;
	constant_power_B 17753.088+10796.350j;
	constant_power_C 17753.088+10796.350j;
	load_class "C";
}

object load {
	name R3-12-47-1_load_15;
	parent R3-12-47-1_meter_15;
	phases "ABCN";
	nominal_voltage 7199.558;
	voltage_A 7199.558+0.0j;
	voltage_B -3599.779-6235.000j;
	voltage_C -3599.779+6235.000j;
	constant_power_A 26654.081+16209.393j;
	constant_power_B 26654.081+16209.393j;
	constant_power_C 26654.081+16209.393j;
	load_class "C";
}

object load {
	name R3-12-47-1_load_16;
	parent R3-12-47-1_meter_16;
	phases "ABCN";
	nominal_voltage 7199.558;
	voltage_A 7199.558+0.0j;
	voltage_B -3599.779-6235.000j;
	voltage_C -3599.779+6235.000j;
	constant_power_A 17753.088+10796.350j;
	constant_power_B 17753.088+10796.350j;
	constant_power_C 17753.088+10796.350j;
	load_class "C";
}

object load {
	name R3-12-47-1_load_17;
	parent R3-12-47-1_meter_17;
	phases "ABCN";
	nominal_voltage 7199.558;
	voltage_A 7199.558+0.0j;
	voltage_B -3599.779-6235.000j;
	voltage_C -3599.779+6235.000j;
	constant_power_A 35524.882+21604.075j;
	constant_power_B 35524.882+21604.075j;
	constant_power_C 35524.882+21604.075j;
	load_class "C";
}

object load {
	name R3-12-47-1_load_18;
	parent R3-12-47-1_meter_18;
	phases "ABCN";
	nominal_voltage 7199.558;
	voltage_A 7199.558+0.0j;
	voltage_B -3599.779-6235.000j;
	voltage_C -3599.779+6235.000j;
	constant_power_A 8870.821+5394.695j;
	constant_power_B 8870.821+5394.695j;
	constant_power_C 8870.821+5394.695j;
	load_class "C";
}

object load {
	name R3-12-47-1_load_19;
	parent R3-12-47-1_meter_19;
	phases "ACN";
	nominal_voltage 7199.558;
	voltage_A 7199.558+0.0j;
	voltage_C -3599.779+6235.000j;
	constant_power_A 4435.411+2697.347j;
	constant_power_C 4435.411+2697.347j;
	load_class "C";
}

object load {
	name R3-12-47-1_load_20;
	parent R3-12-47-1_meter_20;
	phases "ABCN";
	nominal_voltage 7199.558;
	voltage_A 7199.558+0.0j;
	voltage_B -3599.779-6235.000j;
	voltage_C -3599.779+6235.000j;
	constant_power_A 8870.821+5394.695j;
	constant_power_B 8870.821+5394.695j;
	constant_power_C 8870.821+5394.695j;
	load_class "C";
}

object load {
	name R3-12-47-1_load_21;
	parent R3-12-47-1_meter_21;
	phases "ABCN";
	nominal_voltage 7199.558;
	voltage_A 7199.558+0.0j;
	voltage_B -3599.779-6235.000j;
	voltage_C -3599.779+6235.000j;
	constant_power_A 1754.599+1067.040j;
	constant_power_B 1754.599+1067.040j;
	constant_power_C 1754.599+1067.040j;
	load_class "C";
}

object load {
	name R3-12-47-1_load_22;
	parent R3-12-47-1_meter_22;
	phases "ABCN";
	nominal_voltage 7199.558;
	voltage_A 7199.558+0.0j;
	voltage_B -3599.779-6235.000j;
	voltage_C -3599.779+6235.000j;
	constant_power_A 34000.000+21100.000j;
	constant_power_B 34000.000+21100.000j;
	constant_power_C 34000.000+21100.000j;
	load_class "C";
}

object load {
	name R3-12-47-1_load_23;
	parent R3-12-47-1_meter_23;
	phases "ABCN";
	nominal_voltage 7199.558;
	voltage_A 7199.558+0.0j;
	voltage_B -3599.779-6235.000j;
	voltage_C -3599.779+6235.000j;
	constant_power_A 8870.821+5394.695j;
	constant_power_B 8870.821+5394.695j;
	constant_power_C 8870.821+5394.695j;
	load_class "C";
}

object load {
	name R3-12-47-1_load_24;
	parent R3-12-47-1_meter_24;
	phases "ABCN";
	nominal_voltage 7199.558;
	voltage_A 7199.558+0.0j;
	voltage_B -3599.779-6235.000j;
	voltage_C -3599.779+6235.000j;
	constant_power_A 26654.081+16209.393j;
	constant_power_B 26654.081+16209.393j;
	constant_power_C 26654.081+16209.393j;
	load_class "C";
}

object load {
	name R3-12-47-1_load_25;
	parent R3-12-47-1_meter_25;
	phases "ABCN";
	nominal_voltage 7199.558;
	voltage_A 7199.558+0.0j;
	voltage_B -3599.779-6235.000j;
	voltage_C -3599.779+6235.000j;
	constant_power_A 17753.088+10796.350j;
	constant_power_B 17753.088+10796.350j;
	constant_power_C 17753.088+10796.350j;
	load_class "C";
}

object load {
	name R3-12-47-1_load_26;
	parent R3-12-47-1_meter_26;
	phases "ABCN";
	nominal_voltage 7199.558;
	voltage_A 7199.558+0.0j;
	voltage_B -3599.779-6235.000j;
	voltage_C -3599.779+6235.000j;
	constant_power_A 8870.821+5394.695j;
	constant_power_B 8870.821+5394.695j;
	constant_power_C 8870.821+5394.695j;
	load_class "C";
}

object load {
	name R3-12-47-1_load_27;
	parent R3-12-47-1_meter_27;
	phases "ABCN";
	nominal_voltage 7199.558;
	voltage_A 7199.558+0.0j;
	voltage_B -3599.779-6235.000j;
	voltage_C -3599.779+6235.000j;
	constant_power_A 17753.088+10796.350j;
	constant_power_B 17753.088+10796.350j;
	constant_power_C 17753.088+10796.350j;
	load_class "C";
}

object load {
	name R3-12-47-1_load_28;
	parent R3-12-47-1_meter_28;
	phases "ABCN";
	nominal_voltage 7199.558;
	voltage_A 7199.558+0.0j;
	voltage_B -3599.779-6235.000j;
	voltage_C -3599.779+6235.000j;
	constant_power_A 4435.411+2697.347j;
	constant_power_B 4435.411+2697.347j;
	constant_power_C 4435.411+2697.347j;
	load_class "C";
}

object load {
	name R3-12-47-1_load_29;
	parent R3-12-47-1_meter_29;
	phases "ABCN";
	nominal_voltage 7199.558;
	voltage_A 7199.558+0.0j;
	voltage_B -3599.779-6235.000j;
	voltage_C -3599.779+6235.000j;
	constant_power_A 8870.821+5394.695j;
	constant_power_B 8870.821+5394.695j;
	constant_power_C 8870.821+5394.695j;
	load_class "C";
}

object load {
	name R3-12-47-1_load_30;
	parent R3-12-47-1_meter_30;
	phases "ABCN";
	nominal_voltage 7199.558;
	voltage_A 7199.558+0.0j;
	voltage_B -3599.779-6235.000j;
	voltage_C -3599.779+6235.000j;
	constant_power_A 8870.821+5394.695j;
	constant_power_B 8870.821+5394.695j;
	constant_power_C 8870.821+5394.695j;
	load_class "C";
}

object load {
	name R3-12-47-1_load_31;
	parent R3-12-47-1_meter_31;
	phases "ABCN";
	nominal_voltage 7199.558;
	voltage_A 7199.558+0.0j;
	voltage_B -3599.779-6235.000j;
	voltage_C -3599.779+6235.000j;
	constant_power_A 7097.500+4316.268j;
	constant_power_B 7097.500+4316.268j;
	constant_power_C 7097.500+4316.268j;
	load_class "C";
}

object load {
	name R3-12-47-1_load_32;
	parent R3-12-47-1_meter_32;