//*********************************************
// $Id: R3-12.47-1.glm 1132 2008-11-18 22:36:10Z dchassin $ 
//*********************************************

clock { 
	 timezone MST+7MDT;
	 timestamp '2000-01-01 0:00:00';


//*********************************************
// modules
module powerflow;


object triplex_line_conductor: {
	name 1/0 AA triplex;
	resistance 0.97;
	geometric_mean_radius 0.0111;
}

object triplex_line_configuration:1 {
	conductor_1 1/0 AA triplex;
	conductor_2 1/0 AA triplex;
	conductor_N 1/0 AA triplex;
	insulation_thickness 0.08;
	diameter 0.368;
}

object transformer:120  {
	phases "A|B|C|N";
	from 00441102;
	to 00441102_C_M;
	configuration transformer_configuration:103;
}

object meter:121 {
	name 00441102_C_M;
	phases "ABCN";
	nominal_voltage 7199.558;
	voltage_A 7199.558+0.0j;
	voltage_B -3599.779-6235.000j;
	voltage_C -3599.779+6235.000j;
}
object transformer:122  {
	phases "A|B|C|N";
	from 00441104;
	to 00441104_C_M;
	configuration transformer_configuration:104;
}

object meter:123 {
	name 00441104_C_M;
	phases "ABCN";
	nominal_voltage 7199.558;
	voltage_A 7199.558+0.0j;
	voltage_B -3599.779-6235.000j;
	voltage_C -3599.779+6235.000j;
}
object transformer:124  {
	phases "A|B|C|N";
	from 00441106;
	to 00441106_C_M;
	configuration transformer_configuration:105;
}

object meter:125 {
	name 00441106_C_M;
	phases "ABCN";
	nominal_voltage 7199.558;
	voltage_A 7199.558+0.0j;
	voltage_B -3599.779-6235.000j;
	voltage_C -3599.779+6235.000j;
}
object transformer:126  {
	phases "A|B|C|N";
	from 00441105;
	to 00441105_C_M;
	configuration transformer_configuration:105;
}

object meter:127 {
	name 00441105_C_M;
	phases "ABCN";
	nominal_voltage 7199.558;
	voltage_A 7199.558+0.0j;
	voltage_B -3599.779-6235.000j;
	voltage_C -3599.779+6235.000j;
}
object transformer:128  {
	phases "A|B|C|N";
	from 00441107;
	to 00441107_C_M;
	configuration transformer_configuration:105;
}

object meter:129 {
	name 00441107_C_M;
	phases "ABCN";
	nominal_voltage 7199.558;
	voltage_A 7199.558+0.0j;
	voltage_B -3599.779-6235.000j;
	voltage_C -3599.779+6235.000j;
}
object transformer:130  {
	phases "A|B|C|N";
	from 00441301;
	to 00441301_C_M;
	configuration transformer_configuration:106;
}

object meter:131 {
	name 00441301_C_M;
	phases "ABCN";
	nominal_voltage 7199.558;
	voltage_A 7199.558+0.0j;
	voltage_B -3599.779-6235.000j;
	voltage_C -3599.779+6235.000j;
}
object transformer:132  {
	phases "AS";
	from 00441404;
	to 00441404_RA_M;
	configuration transformer_configuration:55;
}

object triplex_meter:133 {
	name 00441404_RA_M;
	phases "AS";
	nominal_voltage 120;
	voltage_1 120;
	voltage_2 120;
	voltage_N 0;
}

object triplex_node:134 {
	name 00441404_RA_TX;
	parent 00441404_RA_M;
	phases AS;
	nominal_voltage 120;
	latitude 48N10'10.296";
	longitude 119W50'48.683";
	power_1 4.43541068907729+2.69734731162343j;
	voltage_1 120;
	voltage_2 120;
	voltage_N 0;
}

object transformer:135  {
	phases "CS";
	from 00441404;
	to 00441404_RC_M;
	configuration transformer_configuration:90;
}

object triplex_meter:136 {
	name 00441404_RC_M;
	phases "CS";
	nominal_voltage 120;
	voltage_1 -60.000+103.923j;
	voltage_2 -60.000+103.923j;
	voltage_N 0;
}

object triplex_node:137 {
	name 00441404_RC_TX;
	parent 00441404_RC_M;
	phases CS;
	nominal_voltage 120;
	latitude 48N10'10.296";
	longitude 119W50'48.683";
	power_1 4.43541068907729+2.69734731162343j;
	voltage_1 -60.000+103.923j;
	voltage_2 -60.000+103.923j;
	voltage_N 0;
}

object transformer:138  {
	phases "AS";
	from 00441406;
	to 00441406_RA_M;
	configuration transformer_configuration:56;
}

object triplex_meter:139 {
	name 00441406_RA_M;
	phases "AS";
	nominal_voltage 120;
	voltage_1 120;
	voltage_2 120;
	voltage_N 0;
}

object triplex_node:140 {
	name 00441406_RA_TX;
	parent 00441406_RA_M;
	phases AS;
	nominal_voltage 120;
	latitude 48N10'8.457";
	longitude 119W50'40.889";
	power_1 7.10416290840293+4.32032027372462j;
	voltage_1 120;
	voltage_2 120;
	voltage_N 0;
}

object transformer:141  {
	phases "BS";
	from 00441406;
	to 00441406_RB_M;
	configuration transformer_configuration:72;
}

object triplex_meter:142 {
	name 00441406_RB_M;
	phases "BS";
	nominal_voltage 120;
	voltage_1 -60.000-103.923j;
	voltage_2 -60.000-103.923j;
	voltage_N 0;
}

object triplex_node:143 {
	name 00441406_RB_TX;
	parent 00441406_RB_M;
	phases BS;
	nominal_voltage 120;
	latitude 48N10'8.457";
	longitude 119W50'40.889";
	power_1 7.10416290840293+4.32032027372462j;
	voltage_1 -60.000-103.923j;
	voltage_2 -60.000-103.923j;
	voltage_N 0;
}

object transformer:144  {
	phases "CS";
	from 00441406;
	to 00441406_RC_M;
	configuration transformer_configuration:91;
}

object triplex_meter:145 {
	name 00441406_RC_M;
	phases "CS";
	nominal_voltage 120;
	voltage_1 -60.000+103.923j;
	voltage_2 -60.000+103.923j;
	voltage_N 0;
}

object triplex_node:146 {
	name 00441406_RC_TX;
	parent 00441406_RC_M;
	phases CS;
	nominal_voltage 120;
	latitude 48N10'8.457";
	longitude 119W50'40.889";
	power_1 7.10416290840293+4.32032027372462j;
	voltage_1 -60.000+103.923j;
	voltage_2 -60.000+103.923j;
	voltage_N 0;
}

object transformer:147  {
	phases "AS";
	from 00441560;
	to 00441560_RA_M;
	configuration transformer_configuration:57;
}

object triplex_meter:148 {
	name 00441560_RA_M;
	phases "AS";
	nominal_voltage 120;
	voltage_1 120;
	voltage_2 120;
	voltage_N 0;
}

object triplex_node:149 {
	name 00441560_RA_TX;
	parent 00441560_RA_M;
	phases AS;
	nominal_voltage 120;
	latitude 48N10'8.034";
	longitude 119W50'45.577";
	power_1 9.48405748271791+5.76762756542237j;
	voltage_1 120;
	voltage_2 120;
	voltage_N 0;
}

object transformer:150  {
	phases "BS";
	from 00441560;
	to 00441560_RB_M;
	configuration transformer_configuration:73;
}

object triplex_meter:151 {
	name 00441560_RB_M;
	phases "BS";
	nominal_voltage 120;
	voltage_1 -60.000-103.923j;
	voltage_2 -60.000-103.923j;
	voltage_N 0;
}

object triplex_node:152 {
	name 00441560_RB_TX;
	parent 00441560_RB_M;
	phases BS;
	nominal_voltage 120;
	latitude 48N10'8.034";
	longitude 119W50'45.577";
	power_1 9.48405748271791+5.76762756542237j;
	voltage_1 -60.000-103.923j;
	voltage_2 -60.000-103.923j;
	voltage_N 0;
}

object transformer:153  {
	phases "CS";
	from 00441560;
	to 00441560_RC_M;
	configuration transformer_configuration:92;
}

object triplex_meter:154 {
	name 00441560_RC_M;
	phases "CS";
	nominal_voltage 120;
	voltage_1 -60.000+103.923j;
	voltage_2 -60.000+103.923j;
	voltage_N 0;
}

object triplex_node:155 {
	name 00441560_RC_TX;
	parent 00441560_RC_M;
	phases CS;
	nominal_voltage 120;
	latitude 48N10'8.034";
	longitude 119W50'45.577";
	power_1 9.48405748271791+5.76762756542237j;
	voltage_1 -60.000+103.923j;
	voltage_2 -60.000+103.923j;
	voltage_N 0;
}

object transformer:156  {
	phases "BS";
	from 00441561;
	to 00441561_RB_M;
	configuration transformer_configuration:74;
}

object triplex_meter:157 {
	name 00441561_RB_M;
	phases "BS";
	nominal_voltage 120;
	voltage_1 -60.000-103.923j;
	voltage_2 -60.000-103.923j;
	voltage_N 0;
}

object triplex_node:158 {
	name 00441561_RB_TX;
	parent 00441561_RB_M;
	phases BS;
	nominal_voltage 120;
	latitude 48N10'4.781";
	longitude 119W50'44.054";
	power_1 29.6699816480996+18.0434802647479j;
	voltage_1 -60.000-103.923j;
	voltage_2 -60.000-103.923j;
	voltage_N 0;
}

object transformer:159  {
	phases "AS";
	from 00441408;
	to 00441408_RA_M;
	configuration transformer_configuration:56;
}

object triplex_meter:160 {
	name 00441408_RA_M;
	phases "AS";
	nominal_voltage 120;
	voltage_1 120;
	voltage_2 120;
	voltage_N 0;
}

object triplex_node:161 {
	name 00441408_RA_TX;
	parent 00441408_RA_M;
	phases AS;
	nominal_voltage 120;
	latitude 48N10'9.573";
	longitude 119W50'38.700";
	power_1 8.87082137815457+5.39469462324685j;
	voltage_1 120;
	voltage_2 120;
	voltage_N 0;
}

object transformer:162  {
	phases "BS";
	from 00441408;
	to 00441408_RB_M;
	configuration transformer_configuration:72;
}

object triplex_meter:163 {
	name 00441408_RB_M;
	phases "BS";
	nominal_voltage 120;
	voltage_1 -60.000-103.923j;
	voltage_2 -60.000-103.923j;
	voltage_N 0;
}

object triplex_node:164 {
	name 00441408_RB_TX;
	parent 00441408_RB_M;
	phases BS;
	nominal_voltage 120;
	latitude 48N10'9.573";
	longitude 119W50'38.700";
	power_1 8.87082137815457+5.39469462324685j;
	voltage_1 -60.000-103.923j;
	voltage_2 -60.000-103.923j;
	voltage_N 0;
}

object transformer:165  {
	phases "CS";
	from 00441408;
	to 00441408_RC_M;
	configuration transformer_configuration:91;
}

object triplex_meter:166 {
	name 00441408_RC_M;
	phases "CS";
	nominal_voltage 120;
	voltage_1 -60.000+103.923j;
	voltage_2 -60.000+103.923j;
	voltage_N 0;
}

object triplex_node:167 {
	name 00441408_RC_TX;
	parent 00441408_RC_M;
	phases CS;
	nominal_voltage 120;
	latitude 48N10'9.573";
	longitude 119W50'38.700";
	power_1 8.87082137815457+5.39469462324685j;
	voltage_1 -60.000+103.923j;
	voltage_2 -60.000+103.923j;
	voltage_N 0;
}

object transformer:168  {
	phases "BS";
	from 00441416;
	to 00441416_RB_M;
	configuration transformer_configuration:70;
}

object triplex_meter:169 {
	name 00441416_RB_M;
	phases "BS";
	nominal_voltage 120;
	voltage_1 -60.000-103.923j;
	voltage_2 -60.000-103.923j;
	voltage_N 0;
}

object triplex_node:170 {
	name 00441416_RB_TX;
	parent 00441416_RB_M;
	phases BS;
	nominal_voltage 120;
	latitude 48N10'8.375";
	longitude 119W50'34.944";
	power_1 8.87082137815457+5.39469462324685j;
	voltage_1 -60.000-103.923j;
	voltage_2 -60.000-103.923j;
	voltage_N 0;
}

object transformer:171  {
	phases "AS";
	from 00441414;
	to 00441414_RA_M;
	configuration transformer_configuration:58;
}

object triplex_meter:172 {
	name 00441414_RA_M;
	phases "AS";
	nominal_voltage 120;
	voltage_1 120;
	voltage_2 120;
	voltage_N 0;
}

object triplex_node:173 {
	name 00441414_RA_TX;
	parent 00441414_RA_M;
	phases AS;
	nominal_voltage 120;
	latitude 48N10'7.569";
	longitude 119W50'31.543";
	power_1 17.7530883326231+10.7963497506419j;
	voltage_1 120;
	voltage_2 120;
	voltage_N 0;
}

object transformer:174  {
	phases "BS";
	from 00441414;
	to 00441414_RB_M;
	configuration transformer_configuration:75;
}

object triplex_meter:175 {
	name 00441414_RB_M;
	phases "BS";
	nominal_voltage 120;
	voltage_1 -60.000-103.923j;
	voltage_2 -60.000-103.923j;
	voltage_N 0;
}

object triplex_node:176 {
	name 00441414_RB_TX;
	parent 00441414_RB_M;
	phases BS;
	nominal_voltage 120;
	latitude 48N10'7.569";
	longitude 119W50'31.543";
	power_1 17.7530883326231+10.7963497506419j;
	voltage_1 -60.000-103.923j;
	voltage_2 -60.000-103.923j;
	voltage_N 0;
}

object transformer:177  {
	phases "CS";
	from 00441414;
	to 00441414_RC_M;
	configuration transformer_configuration:93;
}

object triplex_meter:178 {
	name 00441414_RC_M;
	phases "CS";
	nominal_voltage 120;
	voltage_1 -60.000+103.923j;
	voltage_2 -60.000+103.923j;
	voltage_N 0;
}

object triplex_node:179 {
	name 00441414_RC_TX;
	parent 00441414_RC_M;
	phases CS;
	nominal_voltage 120;
	latitude 48N10'7.569";
	longitude 119W50'31.543";
	power_1 17.7530883326231+10.7963497506419j;
	voltage_1 -60.000+103.923j;
	voltage_2 -60.000+103.923j;
	voltage_N 0;
}

object transformer:180  {
	phases "AS";
	from 00441415;
	to 00441415_RA_M;
	configuration transformer_configuration:53;
}

object triplex_meter:181 {
	name 00441415_RA_M;
	phases "AS";
	nominal_voltage 120;
	voltage_1 120;
	voltage_2 120;
	voltage_N 0;
}

object triplex_node:182 {
	name 00441415_RA_TX;
	parent 00441415_RA_M;
	phases AS;
	nominal_voltage 120;
	latitude 48N10'8.210";
	longitude 119W50'31.025";
	power_1 8.87082137815457+5.39469462324685j;
	voltage_1 120;
	voltage_2 120;
	voltage_N 0;
}

object transformer:183  {
	phases "BS";
	from 00441415;
	to 00441415_RB_M;
	configuration transformer_configuration:70;
}

object triplex_meter:184 {
	name 00441415_RB_M;
	phases "BS";
	nominal_voltage 120;
	voltage_1 -60.000-103.923j;
	voltage_2 -60.000-103.923j;
	voltage_N 0;
}

object triplex_node:185 {
	name 00441415_RB_TX;
	parent 00441415_RB_M;
	phases BS;
	nominal_voltage 120;
	latitude 48N10'8.210";
	longitude 119W50'31.025";
	power_1 8.87082137815457+5.39469462324685j;
	voltage_1 -60.000-103.923j;
	voltage_2 -60.000-103.923j;
	voltage_N 0;
}

object transformer:186  {
	phases "CS";
	from 00441415;
	to 00441415_RC_M;
	configuration transformer_configuration:88;
}

object triplex_meter:187 {
	name 00441415_RC_M;
	phases "CS";
	nominal_voltage 120;
	voltage_1 -60.000+103.923j;
	voltage_2 -60.000+103.923j;
	voltage_N 0;
}

object triplex_node:188 {
	name 00441415_RC_TX;
	parent 00441415_RC_M;
	phases CS;
	nominal_voltage 120;
	latitude 48N10'8.210";
	longitude 119W50'31.025";
	power_1 8.87082137815457+5.39469462324685j;
	voltage_1 -60.000+103.923j;
	voltage_2 -60.000+103.923j;
	voltage_N 0;
}

object transformer:189  {
	phases "AS";
	from 00441418;
	to 00441418_RA_M;
	configuration transformer_configuration:58;
}

object triplex_meter:190 {
	name 00441418_RA_M;
	phases "AS";
	nominal_voltage 120;
	voltage_1 120;
	voltage_2 120;
	voltage_N 0;
}

object triplex_node:191 {
	name 00441418_RA_TX;
	parent 00441418_RA_M;
	phases AS;
	nominal_voltage 120;
	latitude 48N10'5.648";
	longitude 119W50'32.415";
	power_1 17.7530883326231+10.7963497506419j;
	voltage_1 120;
	voltage_2 120;
	voltage_N 0;
}

object transformer:192  {
	phases "AS";
	from 00441419;
	to 00441419_RA_M;
	configuration transformer_configuration:53;
}

object triplex_meter:193 {
	name 00441419_RA_M;
	phases "AS";
	nominal_voltage 120;
	voltage_1 120;
	voltage_2 120;
	voltage_N 0;
}

object triplex_node:194 {
	name 00441419_RA_TX;
	parent 00441419_RA_M;
	phases AS;
	nominal_voltage 120;
	latitude 48N10'4.719";
	longitude 119W50'31.986";
	power_1 8.87082137815457+5.39469462324685j;
	voltage_1 120;
	voltage_2 120;
	voltage_N 0;
}

object transformer:195  {
	phases "BS";
	from 00441419;
	to 00441419_RB_M;
	configuration transformer_configuration:70;
}

object triplex_meter:196 {
	name 00441419_RB_M;
	phases "BS";
	nominal_voltage 120;
	voltage_1 -60.000-103.923j;
	voltage_2 -60.000-103.923j;
	voltage_N 0;
}

object triplex_node:197 {
	name 00441419_RB_TX;
	parent 00441419_RB_M;
	phases BS;
	nominal_voltage 120;
	latitude 48N10'4.719";
	longitude 119W50'31.986";
	power_1 8.87082137815457+5.39469462324685j;
	voltage_1 -60.000-103.923j;
	voltage_2 -60.000-103.923j;
	voltage_N 0;
}

object transformer:198  {
	phases "AS";
	from 00441422;
	to 00441422_RA_M;
	configuration transformer_configuration:58;
}

object triplex_meter:199 {
	name 00441422_RA_M;
	phases "AS";
	nominal_voltage 120;
	voltage_1 120;
	voltage_2 120;
	voltage_N 0;
}

object triplex_node:200 {
	name 00441422_RA_TX;
	parent 00441422_RA_M;
	phases AS;
	nominal_voltage 120;
	latitude 48N10'2.871";
	longitude 119W50'35.388";
	power_1 17.7530883326231+10.7963497506419j;
	voltage_1 120;
	voltage_2 120;
	voltage_N 0;
}

object transformer:201  {
	phases "BS";
	from 00441422;
	to 00441422_RB_M;
	configuration transformer_configuration:75;
}

object triplex_meter:202 {
	name 00441422_RB_M;
	phases "BS";
	nominal_voltage 120;
	voltage_1 -60.000-103.923j;
	voltage_2 -60.000-103.923j;
	voltage_N 0;
}

object triplex_node:203 {
	name 00441422_RB_TX;
	parent 00441422_RB_M;
	phases BS;
	nominal_voltage 120;
	latitude 48N10'2.871";
	longitude 119W50'35.388";
	power_1 17.7530883326231+10.7963497506419j;
	voltage_1 -60.000-103.923j;
	voltage_2 -60.000-103.923j;
	voltage_N 0;
}

object transformer:204  {
	phases "CS";
	from 00441422;
	to 00441422_RC_M;
	configuration transformer_configuration:93;
}

object triplex_meter:205 {
	name 00441422_RC_M;
	phases "CS";
	nominal_voltage 120;
	voltage_1 -60.000+103.923j;
	voltage_2 -60.000+103.923j;
	voltage_N 0;
}

object triplex_node:206 {
	name 00441422_RC_TX;
	parent 00441422_RC_M;
	phases CS;
	nominal_voltage 120;
	latitude 48N10'2.871";
	longitude 119W50'35.388";
	power_1 17.7530883326231+10.7963497506419j;
	voltage_1 -60.000+103.923j;
	voltage_2 -60.000+103.923j;
	voltage_N 0;
}

object transformer:207  {
	phases "BS";
	from 00441427;
	to 00441427_RB_M;
	configuration transformer_configuration:75;
}

object triplex_meter:208 {
	name 00441427_RB_M;
	phases "BS";
	nominal_voltage 120;
	voltage_1 -60.000-103.923j;
	voltage_2 -60.000-103.923j;
	voltage_N 0;
}

object triplex_node:209 {
	name 00441427_RB_TX;
	parent 00441427_RB_M;
	phases BS;
	nominal_voltage 120;
	latitude 48N9'55.838";
	longitude 119W50'32.829";
	power_1 17.7530883326231+10.7963497506419j;
	voltage_1 -60.000-103.923j;
	voltage_2 -60.000-103.923j;
	voltage_N 0;
}

object transformer:210  {
	phases "AS";
	from 00441428;
	to 00441428_RA_M;
	configuration transformer_configuration:59;
}

object triplex_meter:211 {
	name 00441428_RA_M;
	phases "AS";
	nominal_voltage 120;
	voltage_1 120;
	voltage_2 120;
	voltage_N 0;
}

object triplex_node:212 {
	name 00441428_RA_TX;
	parent 00441428_RA_M;
	phases AS;
	nominal_voltage 120;
	latitude 48N9'56.850";
	longitude 119W50'33.805";
	power_1 26.6540814993174+16.2093930226182j;
	voltage_1 120;
	voltage_2 120;
	voltage_N 0;
}

object transformer:213  {
	phases "BS";
	from 00441428;
	to 00441428_RB_M;
	configuration transformer_configuration:76;
}

object triplex_meter:214 {
	name 00441428_RB_M;
	phases "BS";
	nominal_voltage 120;
	voltage_1 -60.000-103.923j;
	voltage_2 -60.000-103.923j;
	voltage_N 0;
}

object triplex_node:215 {
	name 00441428_RB_TX;
	parent 00441428_RB_M;
	phases BS;
	nominal_voltage 120;
	latitude 48N9'56.850";
	longitude 119W50'33.805";
	power_1 26.6540814993174+16.2093930226182j;
	voltage_1 -60.000-103.923j;
	voltage_2 -60.000-103.923j;
	voltage_N 0;
}

object transformer:216  {
	phases "CS";
	from 00441428;
	to 00441428_RC_M;
	configuration transformer_configuration:94;
}

object triplex_meter:217 {
	name 00441428_RC_M;
	phases "CS";
	nominal_voltage 120;
	voltage_1 -60.000+103.923j;
	voltage_2 -60.000+103.923j;
	voltage_N 0;
}

object triplex_node:218 {
	name 00441428_RC_TX;
	parent 00441428_RC_M;
	phases CS;
	nominal_voltage 120;
	latitude 48N9'56.850";
	longitude 119W50'33.805";
	power_1 26.6540814993174+16.2093930226182j;
	voltage_1 -60.000+103.923j;
	voltage_2 -60.000+103.923j;
	voltage_N 0;
}

object transformer:219  {
	phases "AS";
	from 00441430;
	to 00441430_RA_M;
	configuration transformer_configuration:58;
}

object triplex_meter:220 {
	name 00441430_RA_M;
	phases "AS";
	nominal_voltage 120;
	voltage_1 120;
	voltage_2 120;
	voltage_N 0;
}

object triplex_node:221 {
	name 00441430_RA_TX;
	parent 00441430_RA_M;
	phases AS;
	nominal_voltage 120;
	latitude 48N9'58.843";
	longitude 119W50'34.367";
	power_1 17.7530883326231+10.7963497506419j;
	voltage_1 120;
	voltage_2 120;
	voltage_N 0;
}

object transformer:222  {
	phases "BS";
	from 00441433;
	to 00441433_RB_M;
	configuration transformer_configuration:70;
}

object triplex_meter:223 {
	name 00441433_RB_M;
	phases "BS";
	nominal_voltage 120;
	voltage_1 -60.000-103.923j;
	voltage_2 -60.000-103.923j;
	voltage_N 0;
}

object triplex_node:224 {
	name 00441433_RB_TX;
	parent 00441433_RB_M;
	phases BS;
	nominal_voltage 120;
	latitude 48N9'51.563";
	longitude 119W50'27.816";
	power_1 8.87082137815457+5.39469462324685j;
	voltage_1 -60.000-103.923j;
	voltage_2 -60.000-103.923j;
	voltage_N 0;
}

object transformer:225  {
	phases "AS";
	from 00441434;
	to 00441434_RA_M;
	configuration transformer_configuration:53;
}

object triplex_meter:226 {
	name 00441434_RA_M;
	phases "AS";
	nominal_voltage 120;
	voltage_1 120;
	voltage_2 120;
	voltage_N 0;
}

object triplex_node:227 {
	name 00441434_RA_TX;
	parent 00441434_RA_M;
	phases AS;
	nominal_voltage 120;
	latitude 48N9'51.180";
	longitude 119W50'27.565";
	power_1 8.87082137815457+5.39469462324685j;
	voltage_1 120;
	voltage_2 120;
	voltage_N 0;
}

object transformer:228  {
	phases "AS";
	from 00441438;
	to 00441438_RA_M;
	configuration transformer_configuration:53;
}

object triplex_meter:229 {
	name 00441438_RA_M;
	phases "AS";
	nominal_voltage 120;
	voltage_1 120;
	voltage_2 120;
	voltage_N 0;
}

object triplex_node:230 {
	name 00441438_RA_TX;
	parent 00441438_RA_M;
	phases AS;
	nominal_voltage 120;
	latitude 48N9'46.585";
	longitude 119W50'25.376";
	power_1 8.87082137815457+5.39469462324685j;
	voltage_1 120;
	voltage_2 120;
	voltage_N 0;
}

object transformer:231  {
	phases "BS";
	from 00441438;
	to 00441438_RB_M;
	configuration transformer_configuration:70;
}

object triplex_meter:232 {
	name 00441438_RB_M;
	phases "BS";
	nominal_voltage 120;
	voltage_1 -60.000-103.923j;
	voltage_2 -60.000-103.923j;
	voltage_N 0;
}

object triplex_node:233 {
	name 00441438_RB_TX;
	parent 00441438_RB_M;
	phases BS;
	nominal_voltage 120;
	latitude 48N9'46.585";
	longitude 119W50'25.376";
	power_1 8.87082137815457+5.39469462324685j;
	voltage_1 -60.000-103.923j;
	voltage_2 -60.000-103.923j;
	voltage_N 0;
}

object transformer:234  {
	phases "CS";
	from 00441438;
	to 00441438_RC_M;
	configuration transformer_configuration:88;
}

object triplex_meter:235 {
	name 00441438_RC_M;
	phases "CS";
	nominal_voltage 120;
	voltage_1 -60.000+103.923j;
	voltage_2 -60.000+103.923j;
	voltage_N 0;
}

object triplex_node:236 {
	name 00441438_RC_TX;
	parent 00441438_RC_M;
	phases CS;
	nominal_voltage 120;
	latitude 48N9'46.585";
	longitude 119W50'25.376";
	power_1 8.87082137815457+5.39469462324685j;
	voltage_1 -60.000+103.923j;
	voltage_2 -60.000+103.923j;
	voltage_N 0;
}

object transformer:237  {
	phases "AS";
	from 00441439;
	to 00441439_RA_M;
	configuration transformer_configuration:53;
}

object triplex_meter:238 {
	name 00441439_RA_M;
	phases "AS";
	nominal_voltage 120;
	voltage_1 120;
	voltage_2 120;
	voltage_N 0;
}

object triplex_node:239 {
	name 00441439_RA_TX;
	parent 00441439_RA_M;
	phases AS;
	nominal_voltage 120;
	latitude 48N9'45.160";
	longitude 119W50'24.977";
	power_1 8.87082137815457+5.39469462324685j;
	voltage_1 120;
	voltage_2 120;
	voltage_N 0;
}

object transformer:240  {
	phases "BS";
	from 00441439;
	to 00441439_RB_M;
	configuration transformer_configuration:70;
}

object triplex_meter:241 {
	name 00441439_RB_M;
	phases "BS";
	nominal_voltage 120;
	voltage_1 -60.000-103.923j;
	voltage_2 -60.000-103.923j;
	voltage_N 0;
}

object triplex_node:242 {
	name 00441439_RB_TX;
	parent 00441439_RB_M;
	phases BS;
	nominal_voltage 120;
	latitude 48N9'45.160";
	longitude 119W50'24.977";
	power_1 8.87082137815457+5.39469462324685j;
	voltage_1 -60.000-103.923j;
	voltage_2 -60.000-103.923j;
	voltage_N 0;
}

object transformer:243  {
	phases "CS";
	from 00441439;
	to 00441439_RC_M;
	configuration transformer_configuration:88;
}

object triplex_meter:244 {
	name 00441439_RC_M;
	phases "CS";
	nominal_voltage 120;
	voltage_1 -60.000+103.923j;
	voltage_2 -60.000+103.923j;
	voltage_N 0;
}

object triplex_node:245 {
	name 00441439_RC_TX;
	parent 00441439_RC_M;
	phases CS;
	nominal_voltage 120;
	latitude 48N9'45.160";
	longitude 119W50'24.977";
	power_1 8.87082137815457+5.39469462324685j;
	voltage_1 -60.000+103.923j;
	voltage_2 -60.000+103.923j;
	voltage_N 0;
}

object transformer:246  {
	phases "AS";
	from 00441442;
	to 00441442_RA_M;
	configuration transformer_configuration:60;
}

object triplex_meter:247 {
	name 00441442_RA_M;
	phases "AS";
	nominal_voltage 120;
	voltage_1 120;
	voltage_2 120;
	voltage_N 0;
}

object triplex_node:248 {
	name 00441442_RA_TX;
	parent 00441442_RA_M;
	phases AS;
	nominal_voltage 120;
	latitude 48N9'57.769";
	longitude 119W50'27.003";
	power_1 14.7860914451106+8.99200250094189j;
	voltage_1 120;
	voltage_2 120;
	voltage_N 0;
}

object transformer:249  {
	phases "BS";
	from 00441442;
	to 00441442_RB_M;
	configuration transformer_configuration:77;
}

object triplex_meter:250 {
	name 00441442_RB_M;
	phases "BS";
	nominal_voltage 120;
	voltage_1 -60.000-103.923j;
	voltage_2 -60.000-103.923j;
	voltage_N 0;
}

object triplex_node:251 {
	name 00441442_RB_TX;
	parent 00441442_RB_M;
	phases BS;
	nominal_voltage 120;
	latitude 48N9'57.769";
	longitude 119W50'27.003";
	power_1 14.7860914451106+8.99200250094189j;
	voltage_1 -60.000-103.923j;
	voltage_2 -60.000-103.923j;
	voltage_N 0;
}

object transformer:252  {
	phases "CS";
	from 00441442;
	to 00441442_RC_M;
	configuration transformer_configuration:95;
}

object triplex_meter:253 {
	name 00441442_RC_M;
	phases "CS";
	nominal_voltage 120;
	voltage_1 -60.000+103.923j;
	voltage_2 -60.000+103.923j;
	voltage_N 0;
}

object triplex_node:254 {
	name 00441442_RC_TX;
	parent 00441442_RC_M;
	phases CS;
	nominal_voltage 120;
	latitude 48N9'57.769";
	longitude 119W50'27.003";
	power_1 14.7860914451106+8.99200250094189j;
	voltage_1 -60.000+103.923j;
	voltage_2 -60.000+103.923j;
	voltage_N 0;
}

object transformer:255  {
	phases "BS";
	from 00441448;
	to 00441448_RB_M;
	configuration transformer_configuration:78;
}

object triplex_meter:256 {
	name 00441448_RB_M;
	phases "BS";
	nominal_voltage 120;
	voltage_1 -60.000-103.923j;
	voltage_2 -60.000-103.923j;
	voltage_N 0;
}

object triplex_node:257 {
	name 00441448_RB_TX;
	parent 00441448_RB_M;
	phases BS;
	nominal_voltage 120;
	latitude 48N9'56.375";
	longitude 119W50'18.529";
	power_1 4.43541068907729+2.69734731162343j;
	voltage_1 -60.000-103.923j;
	voltage_2 -60.000-103.923j;
	voltage_N 0;
}

object transformer:258  {
	phases "BS";
	from 00441449;
	to 00441449_RB_M;
	configuration transformer_configuration:72;
}

object triplex_meter:259 {
	name 00441449_RB_M;
	phases "BS";
	nominal_voltage 120;
	voltage_1 -60.000-103.923j;
	voltage_2 -60.000-103.923j;
	voltage_N 0;
}

object triplex_node:260 {
	name 00441449_RB_TX;
	parent 00441449_RB_M;
	phases BS;
	nominal_voltage 120;
	latitude 48N9'54.630";
	longitude 119W50'17.730";
	power_1 8.87082137815457+5.39469462324685j;
	voltage_1 -60.000-103.923j;
	voltage_2 -60.000-103.923j;
	voltage_N 0;
}

object transformer:261  {
	phases "BS";
	from 00441452;
	to 00441452_RB_M;
	configuration transformer_configuration:72;
}

object triplex_meter:262 {
	name 00441452_RB_M;
	phases "BS";
	nominal_voltage 120;
	voltage_1 -60.000-103.923j;
	voltage_2 -60.000-103.923j;
	voltage_N 0;
}

object triplex_node:263 {
	name 00441452_RB_TX;
	parent 00441452_RB_M;
	phases BS;
	nominal_voltage 120;
	latitude 48N9'51.087";
	longitude 119W50'16.104";
	power_1 8.87082137815457+5.39469462324685j;
	voltage_1 -60.000-103.923j;
	voltage_2 -60.000-103.923j;
	voltage_N 0;
}

object transformer:264  {
	phases "AS";
	from 00441459;
	to 00441459_RA_M;
	configuration transformer_configuration:61;
}

object triplex_meter:265 {
	name 00441459_RA_M;
	phases "AS";
	nominal_voltage 120;
	voltage_1 120;
	voltage_2 120;
	voltage_N 0;
}

object triplex_node:266 {
	name 00441459_RA_TX;
	parent 00441459_RA_M;
	phases AS;
	nominal_voltage 120;
	latitude 48N10'1.951";
	longitude 119W50'10.410";
	power_1 4.43541068907729+2.69734731162343j;
	voltage_1 120;
	voltage_2 120;
	voltage_N 0;
}

object transformer:267  {
	phases "CS";
	from 00441459;
	to 00441459_RC_M;
	configuration transformer_configuration:96;
}

object triplex_meter:268 {
	name 00441459_RC_M;
	phases "CS";
	nominal_voltage 120;
	voltage_1 -60.000+103.923j;
	voltage_2 -60.000+103.923j;
	voltage_N 0;
}

object triplex_node:269 {
	name 00441459_RC_TX;
	parent 00441459_RC_M;
	phases CS;
	nominal_voltage 120;
	latitude 48N10'1.951";
	longitude 119W50'10.410";
	power_1 4.43541068907729+2.69734731162343j;
	voltage_1 -60.000+103.923j;
	voltage_2 -60.000+103.923j;
	voltage_N 0;
}

object transformer:270  {
	phases "AS";
	from 00441470;
	to 00441470_RA_M;
	configuration transformer_configuration:61;
}

object triplex_meter:271 {
	name 00441470_RA_M;
	phases "AS";
	nominal_voltage 120;
	voltage_1 120;
	voltage_2 120;
	voltage_N 0;
}

object triplex_node:272 {
	name 00441470_RA_TX;
	parent 00441470_RA_M;
	phases AS;
	nominal_voltage 120;
	latitude 48N10'4.037";
	longitude 119W50'12.569";
	power_1 4.43541068907729+2.69734731162343j;
	voltage_1 120;
	voltage_2 120;
	voltage_N 0;
}

object transformer:273  {
	phases "CS";
	from 00441470;
	to 00441470_RC_M;
	configuration transformer_configuration:96;
}

object triplex_meter:274 {
	name 00441470_RC_M;
	phases "CS";
	nominal_voltage 120;
	voltage_1 -60.000+103.923j;
	voltage_2 -60.000+103.923j;
	voltage_N 0;
}

object triplex_node:275 {
	name 00441470_RC_TX;
	parent 00441470_RC_M;
	phases CS;
	nominal_voltage 120;
	latitude 48N10'4.037";
	longitude 119W50'12.569";
	power_1 4.43541068907729+2.69734731162343j;
	voltage_1 -60.000+103.923j;
	voltage_2 -60.000+103.923j;
	voltage_N 0;
}

object transformer:276  {
	phases "AS";
	from 00441464;
	to 00441464_RA_M;
	configuration transformer_configuration:53;
}

object triplex_meter:277 {
	name 00441464_RA_M;