// $Id: R3-35.00-1.glm 228 2009-05-27 18:16:10Z ychen $ 
//*********************************************

clock { 
	 timezone MST+7MDT;
	 timestamp '2000-01-01 0:00:00';
}

//*********************************************
// modules
module powerflow;


object fuse:2839 {
	name R3-35-00-1_fuse_1;
	phases "AN";
	from R3-35-00-1_node_813;
	to R3-35-00-1_node_105;
	current_limit 3000.0;
	status CLOSED;
}

object fuse:2843 {
	name R3-35-00-1_fuse_2;
	phases "BN";
	from R3-35-00-1_node_842;
	to R3-35-00-1_node_120;
	current_limit 3000.0;
	status CLOSED;
}

object fuse:2871 {
	name R3-35-00-1_fuse_3;
	phases "AN";
	from R3-35-00-1_node_809;
	to R3-35-00-1_node_125;
	current_limit 3000.0;
	status CLOSED;
}

object fuse:2874 {
	name R3-35-00-1_fuse_4;
	phases "ABCN";
	from R3-35-00-1_node_890;
	to R3-35-00-1_node_71;
	current_limit 3000.0;
	status CLOSED;
}

object fuse:2879 {
	name R3-35-00-1_fuse_5;
	phases "BN";
	from R3-35-00-1_node_993;
	to R3-35-00-1_node_169;
	current_limit 3000.0;
	status CLOSED;
}

object fuse:2881 {
	name R3-35-00-1_fuse_6;
	phases "CN";
	from R3-35-00-1_node_993;
	to R3-35-00-1_node_114;
	current_limit 3000.0;
	status CLOSED;
}

object fuse:2883 {
	name R3-35-00-1_fuse_7;
	phases "ABCN";
	from R3-35-00-1_node_824;
	to R3-35-00-1_node_110;
	current_limit 3000.0;
	status CLOSED;
}

object fuse:2897 {
	name R3-35-00-1_fuse_8;
	phases "AN";
	from R3-35-00-1_node_745;
	to R3-35-00-1_node_178;
	current_limit 3000.0;
	status CLOSED;
}

object fuse:2899 {
	name R3-35-00-1_fuse_9;
	phases "ABCN";
	from R3-35-00-1_node_710;
	to R3-35-00-1_node_100;
	current_limit 3000.0;
	status CLOSED;
}

object fuse:2906 {
	name R3-35-00-1_fuse_10;
	phases "ABCN";
	from R3-35-00-1_node_222;
	to R3-35-00-1_node_147;
	current_limit 3000.0;
	status CLOSED;
}

object fuse:2915 {
	name R3-35-00-1_fuse_11;
	phases "BN";
	from R3-35-00-1_node_937;
	to R3-35-00-1_node_85;
	current_limit 3000.0;
	status CLOSED;
}

object fuse:2924 {
	name R3-35-00-1_fuse_12;
	phases "BN";
	from R3-35-00-1_node_749;
	to R3-35-00-1_node_87;
	current_limit 3000.0;
	status CLOSED;
}

object fuse:2925 {
	name R3-35-00-1_fuse_13;
	phases "BN";
	from R3-35-00-1_node_749;
	to R3-35-00-1_node_103;
	current_limit 3000.0;
	status CLOSED;
}

object fuse:2948 {
	name R3-35-00-1_fuse_14;
	phases "CN";
	from R3-35-00-1_node_708;
	to R3-35-00-1_node_101;
	current_limit 3000.0;
	status CLOSED;
}

object fuse:2955 {
	name R3-35-00-1_fuse_15;
	phases "BN";
	from R3-35-00-1_node_1012;
	to R3-35-00-1_node_164;
	current_limit 3000.0;
	status CLOSED;
}

object fuse:2961 {
	name R3-35-00-1_fuse_16;
	phases "BN";
	from R3-35-00-1_node_973;
	to R3-35-00-1_node_150;
	current_limit 3000.0;
	status CLOSED;
}

object fuse:2972 {
	name R3-35-00-1_fuse_17;
	phases "CN";
	from R3-35-00-1_node_990;
	to R3-35-00-1_node_132;
	current_limit 3000.0;
	status CLOSED;
}

object fuse:2997 {
	name R3-35-00-1_fuse_18;
	phases "AN";
	from R3-35-00-1_node_953;
	to R3-35-00-1_node_123;
	current_limit 3000.0;
	status CLOSED;
}

object fuse:2998 {
	name R3-35-00-1_fuse_19;
	phases "ABCN";
	from R3-35-00-1_node_953;
	to R3-35-00-1_node_67;
	current_limit 3000.0;
	status CLOSED;
}

object fuse:3003 {
	name R3-35-00-1_fuse_20;
	phases "AN";
	from R3-35-00-1_node_905;
	to R3-35-00-1_node_176;
	current_limit 3000.0;
	status CLOSED;
}

object fuse:3015 {
	name R3-35-00-1_fuse_21;
	phases "ABCN";
	from R3-35-00-1_node_776;
	to R3-35-00-1_node_174;
	current_limit 3000.0;
	status CLOSED;
}

object fuse:3042 {
	name R3-35-00-1_fuse_22;
	phases "ABCN";
	from R3-35-00-1_node_721;
	to R3-35-00-1_node_98;
	current_limit 3000.0;
	status CLOSED;
}

object fuse:3054 {
	name R3-35-00-1_fuse_23;
	phases "ABCN";
	from R3-35-00-1_node_712;
	to R3-35-00-1_node_104;
	current_limit 3000.0;
	status CLOSED;
}

object fuse:3057 {
	name R3-35-00-1_fuse_24;
	phases "BN";
	from R3-35-00-1_node_463;
	to R3-35-00-1_node_109;
	current_limit 3000.0;
	status CLOSED;
}

object fuse:3070 {
	name R3-35-00-1_fuse_25;
	phases "ABCN";
	from R3-35-00-1_node_687;
	to R3-35-00-1_node_77;
	current_limit 3000.0;
	status CLOSED;
}

object fuse:3071 {
	name R3-35-00-1_fuse_26;
	phases "CN";
	from R3-35-00-1_node_898;
	to R3-35-00-1_node_68;
	current_limit 3000.0;
	status CLOSED;
}

object fuse:3081 {
	name R3-35-00-1_fuse_27;
	phases "BN";
	from R3-35-00-1_node_888;
	to R3-35-00-1_node_94;
	current_limit 3000.0;
	status CLOSED;
}

object fuse:3098 {
	name R3-35-00-1_fuse_28;
	phases "ABCN";
	from R3-35-00-1_node_956;
	to R3-35-00-1_node_112;
	current_limit 3000.0;
	status CLOSED;
}

object fuse:3108 {
	name R3-35-00-1_fuse_29;
	phases "AN";
	from R3-35-00-1_node_989;
	to R3-35-00-1_node_92;
	current_limit 3000.0;
	status CLOSED;
}

object fuse:3131 {
	name R3-35-00-1_fuse_30;
	phases "ABCN";
	from R3-35-00-1_node_929;
	to R3-35-00-1_node_173;
	current_limit 3000.0;
	status CLOSED;
}

object fuse:3141 {
	name R3-35-00-1_fuse_31;
	phases "BN";
	from R3-35-00-1_node_958;
	to R3-35-00-1_node_180;
	current_limit 3000.0;
	status OPEN;
}

object fuse:3146 {
	name R3-35-00-1_fuse_32;
	phases "ABCN";
	from R3-35-00-1_node_949;
	to R3-35-00-1_node_135;
	current_limit 3000.0;
	status CLOSED;
}

object fuse:3150 {
	name R3-35-00-1_fuse_33;
	phases "ABCN";
	from R3-35-00-1_node_733;
	to R3-35-00-1_node_144;
	current_limit 3000.0;
	status CLOSED;
}

object fuse:3160 {
	name R3-35-00-1_fuse_34;
	phases "ABCN";
	from R3-35-00-1_node_936;
	to R3-35-00-1_node_182;
	current_limit 3000.0;
	status CLOSED;
}

object fuse:3161 {
	name R3-35-00-1_fuse_35;
	phases "ABCN";
	from R3-35-00-1_node_936;
	to R3-35-00-1_node_122;
	current_limit 3000.0;
	status CLOSED;
}

object fuse:3168 {
	name R3-35-00-1_fuse_36;
	phases "AN";
	from R3-35-00-1_node_858;
	to R3-35-00-1_node_153;
	current_limit 3000.0;
	status CLOSED;
}

object fuse:3171 {
	name R3-35-00-1_fuse_37;
	phases "AN";
	from R3-35-00-1_node_858;
	to R3-35-00-1_node_76;
	current_limit 3000.0;
	status CLOSED;
}

object fuse:3173 {
	name R3-35-00-1_fuse_38;
	phases "AN";
	from R3-35-00-1_node_777;
	to R3-35-00-1_node_138;
	current_limit 3000.0;
	status CLOSED;
}

object fuse:3175 {
	name R3-35-00-1_fuse_39;
	phases "AN";
	from R3-35-00-1_node_485;
	to R3-35-00-1_node_108;
	current_limit 3000.0;
	status CLOSED;
}

object fuse:3176 {
	name R3-35-00-1_fuse_40;
	phases "AN";
	from R3-35-00-1_node_108;
	to R3-35-00-1_node_73;
	current_limit 3000.0;
	status CLOSED;
}

object fuse:3195 {
	name R3-35-00-1_fuse_41;
	phases "CN";
	from R3-35-00-1_node_567;
	to R3-35-00-1_node_130;
	current_limit 3000.0;
	status CLOSED;
}

object fuse:3202 {
	name R3-35-00-1_fuse_42;
	phases "ABN";
	from R3-35-00-1_node_991;
	to R3-35-00-1_node_183;
	current_limit 3000.0;
	status CLOSED;
}

object fuse:3216 {
	name R3-35-00-1_fuse_43;
	phases "AN";
	from R3-35-00-1_node_1017;
	to R3-35-00-1_node_69;
	current_limit 3000.0;
	status CLOSED;
}

object fuse:3229 {
	name R3-35-00-1_fuse_44;
	phases "BN";
	from R3-35-00-1_node_1013;
	to R3-35-00-1_node_131;
	current_limit 3000.0;
	status CLOSED;
}

object fuse:3231 {
	name R3-35-00-1_fuse_45;
	phases "BN";
	from R3-35-00-1_node_849;
	to R3-35-00-1_node_86;
	current_limit 3000.0;
	status CLOSED;
}

object fuse:3233 {
	name R3-35-00-1_fuse_46;
	phases "BN";
	from R3-35-00-1_node_875;
	to R3-35-00-1_node_151;
	current_limit 3000.0;
	status CLOSED;
}

object fuse:3245 {
	name R3-35-00-1_fuse_47;
	phases "BN";
	from R3-35-00-1_node_1001;
	to R3-35-00-1_node_177;
	current_limit 3000.0;
	status CLOSED;
}

object fuse:3256 {
	name R3-35-00-1_fuse_48;
	phases "BN";
	from R3-35-00-1_node_748;
	to R3-35-00-1_node_79;
	current_limit 3000.0;
	status CLOSED;
}

object fuse:3258 {
	name R3-35-00-1_fuse_49;
	phases "CN";
	from R3-35-00-1_node_954;
	to R3-35-00-1_node_165;
	current_limit 3000.0;
	status CLOSED;
}

object fuse:3281 {
	name R3-35-00-1_fuse_50;
	phases "CN";
	from R3-35-00-1_node_994;
	to R3-35-00-1_node_124;
	current_limit 3000.0;
	status CLOSED;
}

object fuse:3284 {
	name R3-35-00-1_fuse_51;
	phases "ACN";
	from R3-35-00-1_node_1006;
	to R3-35-00-1_node_140;
	current_limit 3000.0;
	status CLOSED;
}

object fuse:3287 {
	name R3-35-00-1_fuse_52;
	phases "AN";
	from R3-35-00-1_node_984;
	to R3-35-00-1_node_145;
	current_limit 3000.0;
	status CLOSED;
}

object fuse:3324 {
	name R3-35-00-1_fuse_53;
	phases "CN";
	from R3-35-00-1_node_781;
	to R3-35-00-1_node_175;
	current_limit 3000.0;
	status CLOSED;
}

object fuse:3327 {
	name R3-35-00-1_fuse_54;
	phases "ABCN";
	from R3-35-00-1_node_882;
	to R3-35-00-1_node_149;
	current_limit 3000.0;
	status CLOSED;
}

object fuse:3334 {
	name R3-35-00-1_fuse_55;
	phases "AN";
	from R3-35-00-1_node_880;
	to R3-35-00-1_node_90;
	current_limit 3000.0;
	status CLOSED;
}

object fuse:3360 {
	name R3-35-00-1_fuse_56;
	phases "BN";
	from R3-35-00-1_node_925;
	to R3-35-00-1_node_136;
	current_limit 3000.0;
	status CLOSED;
}

object fuse:3367 {
	name R3-35-00-1_fuse_57;
	phases "AN";
	from R3-35-00-1_node_924;
	to R3-35-00-1_node_93;
	current_limit 3000.0;
	status CLOSED;
}

object fuse:3369 {
	name R3-35-00-1_fuse_58;
	phases "AN";
	from R3-35-00-1_node_947;
	to R3-35-00-1_node_121;
	current_limit 3000.0;
	status CLOSED;
}

object fuse:3370 {
	name R3-35-00-1_fuse_59;
	phases "ABCN";
	from R3-35-00-1_node_947;
	to R3-35-00-1_node_111;
	current_limit 3000.0;
	status CLOSED;
}

object fuse:3380 {
	name R3-35-00-1_fuse_60;
	phases "ABCN";
	from R3-35-00-1_node_700;
	to R3-35-00-1_node_116;
	current_limit 3000.0;
	status CLOSED;
}

object fuse:3395 {
	name R3-35-00-1_fuse_61;
	phases "BN";
	from R3-35-00-1_node_761;
	to R3-35-00-1_node_156;
	current_limit 3000.0;
	status CLOSED;
}

object fuse:3399 {
	name R3-35-00-1_fuse_62;
	phases "CN";
	from R3-35-00-1_node_967;
	to R3-35-00-1_node_117;
	current_limit 3000.0;
	status CLOSED;
}

object fuse:3419 {
	name R3-35-00-1_fuse_63;
	phases "ABN";
	from R3-35-00-1_node_871;
	to R3-35-00-1_node_152;
	current_limit 3000.0;
	status CLOSED;
}

object fuse:3421 {
	name R3-35-00-1_fuse_64;
	phases "CN";
	from R3-35-00-1_node_829;
	to R3-35-00-1_node_75;
	current_limit 3000.0;
	status CLOSED;
}

object fuse:3424 {
	name R3-35-00-1_fuse_65;
	phases "ABCN";
	from R3-35-00-1_node_673;
	to R3-35-00-1_node_118;
	current_limit 3000.0;
	status CLOSED;
}

object fuse:3429 {
	name R3-35-00-1_fuse_66;
	phases "ABCN";
	from R3-35-00-1_node_779;
	to R3-35-00-1_node_107;
	current_limit 3000.0;
	status CLOSED;
}

object fuse:3435 {
	name R3-35-00-1_fuse_67;
	phases "BN";
	from R3-35-00-1_node_923;
	to R3-35-00-1_node_126;
	current_limit 3000.0;
	status CLOSED;
}

object fuse:3440 {
	name R3-35-00-1_fuse_68;
	phases "ABCN";
	from R3-35-00-1_node_819;
	to R3-35-00-1_node_74;
	current_limit 3000.0;
	status CLOSED;
}

object fuse:3444 {
	name R3-35-00-1_fuse_69;
	phases "CN";
	from R3-35-00-1_node_801;
	to R3-35-00-1_node_72;
	current_limit 3000.0;
	status CLOSED;
}

object fuse:3454 {
	name R3-35-00-1_fuse_70;
	phases "BN";
	from R3-35-00-1_node_899;
	to R3-35-00-1_node_99;
	current_limit 3000.0;
	status CLOSED;
}

object fuse:3482 {
	name R3-35-00-1_fuse_71;
	phases "BN";
	from R3-35-00-1_node_1020;
	to R3-35-00-1_node_81;
	current_limit 3000.0;
	status CLOSED;
}

object fuse:3484 {
	name R3-35-00-1_fuse_72;
	phases "BCN";
	from R3-35-00-1_node_811;
	to R3-35-00-1_node_82;
	current_limit 3000.0;
	status CLOSED;
}

object fuse:3487 {
	name R3-35-00-1_fuse_73;
	phases "ACN";
	from R3-35-00-1_node_796;
	to R3-35-00-1_node_80;
	current_limit 3000.0;
	status CLOSED;
}

object fuse:3502 {
	name R3-35-00-1_fuse_74;
	phases "BCN";
	from R3-35-00-1_node_940;
	to R3-35-00-1_node_84;
	current_limit 3000.0;
	status CLOSED;
}

object fuse:3504 {
	name R3-35-00-1_fuse_75;
	phases "ABCN";
	from R3-35-00-1_node_916;
	to R3-35-00-1_node_179;
	current_limit 3000.0;
	status CLOSED;
}

object fuse:3526 {
	name R3-35-00-1_fuse_76;
	phases "BN";
	from R3-35-00-1_node_676;
	to R3-35-00-1_node_166;
	current_limit 3000.0;
	status CLOSED;
}

object fuse:3536 {
	name R3-35-00-1_fuse_77;
	phases "CN";
	from R3-35-00-1_node_873;
	to R3-35-00-1_node_146;
	current_limit 3000.0;
	status CLOSED;
}

object fuse:3548 {
	name R3-35-00-1_fuse_78;
	phases "AN";
	from R3-35-00-1_node_847;
	to R3-35-00-1_node_167;
	current_limit 3000.0;
	status CLOSED;
}

object fuse:3570 {
	name R3-35-00-1_fuse_79;
	phases "CN";
	from R3-35-00-1_node_903;
	to R3-35-00-1_node_102;
	current_limit 3000.0;
	status CLOSED;
}

object fuse:3585 {
	name R3-35-00-1_fuse_80;
	phases "AN";
	from R3-35-00-1_node_1031;
	to R3-35-00-1_node_97;
	current_limit 3000.0;
	status CLOSED;
}

object fuse:3586 {
	name R3-35-00-1_fuse_81;
	phases "AN";
	from R3-35-00-1_node_1031;
	to R3-35-00-1_node_154;
	current_limit 3000.0;
	status CLOSED;
}

object fuse:3593 {
	name R3-35-00-1_fuse_82;
	phases "CN";
	from R3-35-00-1_node_904;
	to R3-35-00-1_node_141;
	current_limit 3000.0;
	status CLOSED;
}

object fuse:3608 {
	name R3-35-00-1_fuse_83;
	phases "CN";
	from R3-35-00-1_node_806;
	to R3-35-00-1_node_70;
	current_limit 3000.0;
	status CLOSED;
}

object fuse:3620 {
	name R3-35-00-1_fuse_84;
	phases "ABCN";
	from R3-35-00-1_node_129;
	to R3-35-00-1_node_720;
	current_limit 3000.0;
	status CLOSED;
}

object fuse:3641 {
	name R3-35-00-1_fuse_85;
	phases "CN";
	from R3-35-00-1_node_1008;
	to R3-35-00-1_node_172;
	current_limit 3000.0;
	status CLOSED;
}

object fuse:3658 {
	name R3-35-00-1_fuse_86;
	phases "CN";
	from R3-35-00-1_node_1018;
	to R3-35-00-1_node_133;
	current_limit 3000.0;
	status OPEN;
}

object fuse:3659 {
	name R3-35-00-1_fuse_87;
	phases "BN";
	from R3-35-00-1_node_439;
	to R3-35-00-1_node_95;
	current_limit 3000.0;
	status CLOSED;
}

object fuse:3662 {
	name R3-35-00-1_fuse_88;
	phases "ABCN";
	from R3-35-00-1_node_750;
	to R3-35-00-1_node_139;
	current_limit 3000.0;
	status CLOSED;
}

object fuse:3663 {
	name R3-35-00-1_fuse_89;
	phases "ABCN";
	from R3-35-00-1_node_750;
	to R3-35-00-1_node_83;
	current_limit 3000.0;
	status CLOSED;
}

object fuse:3664 {
	name R3-35-00-1_fuse_90;
	phases "ABCN";
	from R3-35-00-1_node_750;
	to R3-35-00-1_node_142;
	current_limit 3000.0;
	status CLOSED;
}

object fuse:3668 {
	name R3-35-00-1_fuse_91;
	phases "CN";
	from R3-35-00-1_node_532;
	to R3-35-00-1_node_119;
	current_limit 3000.0;
	status CLOSED;
}

object fuse:3676 {
	name R3-35-00-1_fuse_92;
	phases "AN";
	from R3-35-00-1_node_894;
	to R3-35-00-1_node_170;
	current_limit 3000.0;
	status CLOSED;
}

object fuse:3683 {
	name R3-35-00-1_fuse_93;
	phases "AN";
	from R3-35-00-1_node_844;
	to R3-35-00-1_node_181;
	current_limit 3000.0;
	status CLOSED;
}

object fuse:3693 {
	name R3-35-00-1_fuse_94;
	phases "AN";
	from R3-35-00-1_node_883;
	to R3-35-00-1_node_115;
	current_limit 3000.0;
	status CLOSED;
}

object fuse:3699 {
	name R3-35-00-1_fuse_95;
	phases "BN";
	from R3-35-00-1_node_934;
	to R3-35-00-1_node_91;
	current_limit 3000.0;
	status CLOSED;
}

object fuse:3703 {
	name R3-35-00-1_fuse_96;
	phases "ABCN";
	from R3-35-00-1_node_391;
	to R3-35-00-1_node_148;
	current_limit 3000.0;
	status CLOSED;
}

object fuse:3709 {
	name R3-35-00-1_fuse_97;
	phases "AN";
	from R3-35-00-1_node_479;
	to R3-35-00-1_node_163;
	current_limit 3000.0;
	status CLOSED;
}

object fuse:3713 {
	name R3-35-00-1_fuse_98;
	phases "BN";
	from R3-35-00-1_node_641;
	to R3-35-00-1_node_106;
	current_limit 3000.0;
	status CLOSED;
}

object fuse:3720 {
	name R3-35-00-1_fuse_99;
	phases "ABCN";
	from R3-35-00-1_node_727;
	to R3-35-00-1_node_162;
	current_limit 3000.0;
	status CLOSED;
}

object fuse:3721 {
	name R3-35-00-1_fuse_100;
	phases "AN";
	from R3-35-00-1_node_884;
	to R3-35-00-1_node_134;
	current_limit 3000.0;
	status CLOSED;
}

object fuse:3729 {
	name R3-35-00-1_fuse_101;
	phases "AN";
	from R3-35-00-1_node_685;
	to R3-35-00-1_node_171;
	current_limit 3000.0;
	status CLOSED;
}

object fuse:3744 {
	name R3-35-00-1_fuse_102;
	phases "ABN";
	from R3-35-00-1_node_1030;
	to R3-35-00-1_node_158;
	current_limit 3000.0;
	status CLOSED;
}

object fuse:3760 {
	name R3-35-00-1_fuse_103;
	phases "BN";
	from R3-35-00-1_node_650;
	to R3-35-00-1_node_78;
	current_limit 3000.0;
	status CLOSED;
}

object fuse:3765 {
	name R3-35-00-1_fuse_104;
	phases "BN";
	from R3-35-00-1_node_782;
	to R3-35-00-1_node_161;
	current_limit 3000.0;
	status CLOSED;
}

object fuse:3769 {
	name R3-35-00-1_fuse_105;
	phases "ABCN";
	from R3-35-00-1_node_693;
	to R3-35-00-1_node_160;
	current_limit 3000.0;
	status CLOSED;
}

object fuse:3774 {
	name R3-35-00-1_fuse_106;
	phases "ABN";
	from R3-35-00-1_node_400;
	to R3-35-00-1_node_137;
	current_limit 3000.0;
	status CLOSED;
}

object fuse:3788 {
	name R3-35-00-1_fuse_107;
	phases "BN";
	from R3-35-00-1_node_945;
	to R3-35-00-1_node_159;
	current_limit 3000.0;
	status CLOSED;
}

object fuse:3791 {
	name R3-35-00-1_fuse_108;
	phases "ABCN";
	from R3-35-00-1_node_1025;
	to R3-35-00-1_node_88;
	current_limit 3000.0;
	status CLOSED;
}

object fuse:3799 {
	name R3-35-00-1_fuse_109;
	phases "CN";
	from R3-35-00-1_node_979;
	to R3-35-00-1_node_127;
	current_limit 3000.0;
	status CLOSED;
}

object fuse:3812 {
	name R3-35-00-1_fuse_110;
	phases "AN";
	from R3-35-00-1_node_1029;
	to R3-35-00-1_node_155;
	current_limit 3000.0;
	status CLOSED;
}

object fuse:3816 {
	name R3-35-00-1_fuse_111;
	phases "CN";
	from R3-35-00-1_node_445;
	to R3-35-00-1_node_157;
	current_limit 3000.0;
	status CLOSED;
}

object fuse:3827 {
	name R3-35-00-1_fuse_112;
	phases "AN";
	from R3-35-00-1_node_591;
	to R3-35-00-1_node_96;
	current_limit 3000.0;
	status CLOSED;
}

object fuse:3832 {
	name R3-35-00-1_fuse_113;
	phases "CN";
	from R3-35-00-1_node_1023;
	to R3-35-00-1_node_143;
	current_limit 3000.0;
	status OPEN;
}

object fuse:3838 {
	name R3-35-00-1_fuse_114;
	phases "CN";
	from R3-35-00-1_node_773;
	to R3-35-00-1_node_128;
	current_limit 3000.0;
	status CLOSED;
}

object fuse:3840 {
	name R3-35-00-1_fuse_115;
	phases "CN";
	from R3-35-00-1_node_912;
	to R3-35-00-1_node_113;
	current_limit 3000.0;
	status CLOSED;
}

object fuse:3846 {
	name R3-35-00-1_fuse_116;
	phases "CN";
	from R3-35-00-1_node_1027;
	to R3-35-00-1_node_89;
	current_limit 3000.0;
	status CLOSED;
}

object fuse:3866 {
	name R3-35-00-1_fuse_117;
	phases "CN";
	from R3-35-00-1_node_876;
	to R3-35-00-1_node_168;
	current_limit 3000.0;
	status CLOSED;
}


object line_configuration:2760 {
	conductor_C overhead_line_conductor:4;
	conductor_N overhead_line_conductor:4;
	spacing line_spacing:2759;
}

object line_configuration:2761 {
	conductor_C overhead_line_conductor:12;
	conductor_N overhead_line_conductor:12;
	spacing line_spacing:2759;
}

object line_configuration:2763 {
	conductor_A overhead_line_conductor:11;
	conductor_B overhead_line_conductor:11;
	conductor_C overhead_line_conductor:11;
	conductor_N overhead_line_conductor:11;
	spacing line_spacing:2762;
}

object line_configuration:2765 {
	conductor_B overhead_line_conductor:11;
	conductor_N overhead_line_conductor:11;
	spacing line_spacing:2764;
}

object line_configuration:2766 {
	conductor_A overhead_line_conductor:4;
	conductor_B overhead_line_conductor:4;
	conductor_C overhead_line_conductor:4;
	conductor_N overhead_line_conductor:4;
	spacing line_spacing:2762;
}

object line_configuration:2767 {
	conductor_A overhead_line_conductor:24;
	conductor_B overhead_line_conductor:24;
	conductor_C overhead_line_conductor:24;
	conductor_N overhead_line_conductor:24;
	spacing line_spacing:2762;
}

object line_configuration:2769 {
	conductor_A overhead_line_conductor:11;
	conductor_N overhead_line_conductor:11;
	spacing line_spacing:2768;
}

object line_configuration:2770 {
	conductor_A overhead_line_conductor:11;
	conductor_B overhead_line_conductor:11;
	conductor_C overhead_line_conductor:11;
	conductor_N overhead_line_conductor:11;
	spacing line_spacing:2762;
}

object line_configuration:2771 {
	conductor_A overhead_line_conductor:24;
	conductor_B overhead_line_conductor:24;
	conductor_C overhead_line_conductor:24;
	conductor_N overhead_line_conductor:24;
	spacing line_spacing:2762;
}

object line_configuration:2772 {
	conductor_B overhead_line_conductor:24;
	conductor_N overhead_line_conductor:24;
	spacing line_spacing:2764;
}

object line_configuration:2773 {
	conductor_A overhead_line_conductor:27;
	conductor_B overhead_line_conductor:27;
	conductor_C overhead_line_conductor:27;
	conductor_N overhead_line_conductor:27;
	spacing line_spacing:2762;
}

object line_configuration:2774 {
	conductor_A overhead_line_conductor:12;
	conductor_N overhead_line_conductor:12;
	spacing line_spacing:2768;
}

object line_configuration:2775 {
	conductor_A overhead_line_conductor:12;
	conductor_B overhead_line_conductor:12;
	conductor_C overhead_line_conductor:12;
	conductor_N overhead_line_conductor:12;
	spacing line_spacing:2762;
}

object line_configuration:2776 {
	conductor_B overhead_line_conductor:12;
	conductor_N overhead_line_conductor:12;
	spacing line_spacing:2764;
}

object line_configuration:2777 {
	conductor_C overhead_line_conductor:11;
	conductor_N overhead_line_conductor:11;
	spacing line_spacing:2759;
}

object line_configuration:2778 {
	conductor_A overhead_line_conductor:3;
	conductor_N overhead_line_conductor:3;
	spacing line_spacing:2768;
}

object line_configuration:2779 {
	conductor_A overhead_line_conductor:24;
	conductor_N overhead_line_conductor:24;
	spacing line_spacing:2768;
}

object line_configuration:2780 {
	conductor_A overhead_line_conductor:32;
	conductor_B overhead_line_conductor:32;
	conductor_C overhead_line_conductor:32;
	conductor_N overhead_line_conductor:32;
	spacing line_spacing:2762;
}

object line_configuration:2782 {
	conductor_B underground_line_conductor:44;
	conductor_N underground_line_conductor:44;
	spacing line_spacing:2781;
}

object line_configuration:2783 {
	conductor_A overhead_line_conductor:8;
	conductor_B overhead_line_conductor:8;
	conductor_C overhead_line_conductor:8;
	conductor_N overhead_line_conductor:8;
	spacing line_spacing:2762;
}

object line_configuration:2784 {
	conductor_A overhead_line_conductor:4;
	conductor_B overhead_line_conductor:4;
	conductor_C overhead_line_conductor:4;
	conductor_N overhead_line_conductor:4;
	spacing line_spacing:2762;
}

object line_configuration:2785 {
	conductor_B overhead_line_conductor:4;
	conductor_N overhead_line_conductor:4;
	spacing line_spacing:2764;
}

object line_configuration:2787 {
	conductor_A overhead_line_conductor:12;
	conductor_N overhead_line_conductor:12;
	spacing line_spacing:2786;
}

object line_configuration:2789 {
	conductor_A underground_line_conductor:44;
	conductor_N underground_line_conductor:44;
	spacing line_spacing:2788;
}

object line_configuration:2791 {
	conductor_C underground_line_conductor:44;
	conductor_N underground_line_conductor:44;
	spacing line_spacing:2790;
}

object line_configuration:2792 {
	conductor_A underground_line_conductor:42;
	conductor_N underground_line_conductor:42;
	spacing line_spacing:2788;
}

object line_configuration:2794 {
	conductor_A underground_line_conductor:44;
	conductor_B underground_line_conductor:44;
	conductor_C underground_line_conductor:44;
	conductor_N underground_line_conductor:44;
	spacing line_spacing:2793;
}

object line_configuration:2795 {
	conductor_A overhead_line_conductor:27;
	conductor_B overhead_line_conductor:27;
	conductor_C overhead_line_conductor:27;
	conductor_N overhead_line_conductor:27;
	spacing line_spacing:2762;
}

object line_configuration:2796 {
	conductor_B overhead_line_conductor:11;
	conductor_N overhead_line_conductor:11;
	spacing line_spacing:2764;
}

object line_configuration:2797 {
	conductor_A overhead_line_conductor:27;
	conductor_B overhead_line_conductor:27;
	conductor_C overhead_line_conductor:27;
	conductor_N overhead_line_conductor:27;
	spacing line_spacing:2762;
}

object line_configuration:2798 {
	conductor_A overhead_line_conductor:4;
	conductor_N overhead_line_conductor:4;
	spacing line_spacing:2768;
}

object line_configuration:2799 {
	conductor_A overhead_line_conductor:8;
	conductor_B overhead_line_conductor:8;
	conductor_C overhead_line_conductor:8;
	conductor_N overhead_line_conductor:8;
	spacing line_spacing:2762;
}

object line_configuration:2800 {
	conductor_A overhead_line_conductor:16;
	conductor_B overhead_line_conductor:16;
	conductor_C overhead_line_conductor:16;
	conductor_N overhead_line_conductor:16;
	spacing line_spacing:2762;
}

object line_configuration:2802 {
	conductor_B overhead_line_conductor:11;
	conductor_C overhead_line_conductor:11;
	conductor_N overhead_line_conductor:11;
	spacing line_spacing:2801;
}

object line_configuration:2803 {
	conductor_A overhead_line_conductor:15;
	conductor_B overhead_line_conductor:15;
	conductor_C overhead_line_conductor:15;
	conductor_N overhead_line_conductor:15;
	spacing line_spacing:2762;
}

object line_configuration:2804 {
	conductor_B overhead_line_conductor:4;
	conductor_C overhead_line_conductor:4;
	conductor_N overhead_line_conductor:4;
	spacing line_spacing:2801;
}

object line_configuration:2805 {
	conductor_C overhead_line_conductor:8;
	conductor_N overhead_line_conductor:8;
	spacing line_spacing:2759;
}

object line_configuration:2806 {
	conductor_A overhead_line_conductor:12;
	conductor_B overhead_line_conductor:12;
	conductor_C overhead_line_conductor:12;
	conductor_N overhead_line_conductor:12;
	spacing line_spacing:2762;
}

object line_configuration:2807 {
	conductor_C underground_line_conductor:42;
	conductor_N underground_line_conductor:42;
	spacing line_spacing:2790;
}

object line_configuration:2808 {
	conductor_A overhead_line_conductor:15;
	conductor_N overhead_line_conductor:15;
	spacing line_spacing:2768;
}

object line_configuration:2810 {
	conductor_A overhead_line_conductor:12;
	conductor_C overhead_line_conductor:12;
	conductor_N overhead_line_conductor:12;
	spacing line_spacing:2809;
}

object line_configuration:2811 {
	conductor_A overhead_line_conductor:8;
	conductor_C overhead_line_conductor:8;
	conductor_N overhead_line_conductor:8;
	spacing line_spacing:2809;
}

object line_configuration:2812 {
	conductor_A overhead_line_conductor:4;
	conductor_C overhead_line_conductor:4;
	conductor_N overhead_line_conductor:4;
	spacing line_spacing:2809;
}

object line_configuration:2813 {
	conductor_A overhead_line_conductor:11;
	conductor_C overhead_line_conductor:11;
	conductor_N overhead_line_conductor:11;
	spacing line_spacing:2809;
}

object line_configuration:2815 {
	conductor_A overhead_line_conductor:12;
	conductor_B overhead_line_conductor:12;
	conductor_N overhead_line_conductor:12;
	spacing line_spacing:2814;
}

object line_configuration:2816 {
	conductor_A overhead_line_conductor:4;
	conductor_B overhead_line_conductor:4;
	conductor_N overhead_line_conductor:4;
	spacing line_spacing:2814;
}

object line_configuration:2817 {
	conductor_B underground_line_conductor:42;
	conductor_N underground_line_conductor:42;
	spacing line_spacing:2781;
}

object line_configuration:2818 {
	conductor_B overhead_line_conductor:4;
	conductor_N overhead_line_conductor:4;
	spacing line_spacing:2764;
}

object line_configuration:2819 {
	conductor_A overhead_line_conductor:24;
	conductor_B overhead_line_conductor:24;
	conductor_C overhead_line_conductor:24;
	conductor_N overhead_line_conductor:24;
	spacing line_spacing:2762;
}

object line_configuration:2820 {
	conductor_A overhead_line_conductor:24;
	conductor_B overhead_line_conductor:24;
	conductor_C overhead_line_conductor:24;
	conductor_N overhead_line_conductor:24;
	spacing line_spacing:2762;
}

object line_configuration:2821 {
	conductor_C overhead_line_conductor:27;
	conductor_N overhead_line_conductor:27;
	spacing line_spacing:2759;
}

object line_configuration:2823 {
	conductor_A underground_line_conductor:44;
	conductor_B underground_line_conductor:44;
	conductor_N underground_line_conductor:44;
	spacing line_spacing:2822;
}

object line_configuration:2824 {
	conductor_C overhead_line_conductor:16;
	conductor_N overhead_line_conductor:16;
	spacing line_spacing:2759;
}

object line_configuration:2825 {
	conductor_B overhead_line_conductor:11;
	conductor_C overhead_line_conductor:11;
	conductor_N overhead_line_conductor:11;
	spacing line_spacing:2801;
}

object line_configuration:2826 {
	conductor_A overhead_line_conductor:12;
	conductor_B overhead_line_conductor:12;
	conductor_C overhead_line_conductor:12;
	conductor_N overhead_line_conductor:12;
	spacing line_spacing:2793;
}

object line_configuration:2827 {
	conductor_B overhead_line_conductor:12;
	conductor_C overhead_line_conductor:12;
	conductor_N overhead_line_conductor:12;
	spacing line_spacing:2801;
}

object line_configuration:2828 {