//*********************************************
// $Id: R3-35.00-1.glm 1132 2008-11-18 22:36:10Z dchassin $ 
//*********************************************

clock { 
	 timezone MST+7MDT;
	 timestamp '2000-01-01 0:00:00';
}

//*********************************************
// modules
module powerflow;


object triplex_line_conductor: {
	name 1/0 AA triplex;
	resistance 0.97;
	geometric_mean_radius 0.0111;
}

object triplex_line_configuration:1 {
	conductor_1 1/0 AA triplex;
	conductor_2 1/0 AA triplex;
	conductor_N 1/0 AA triplex;
	insulation_thickness 0.08;
	diameter 0.368;
}

object transformer:214  {
	phases "BS";
	from 587_73455;
	to 587_73455_AB_M;
	configuration transformer_configuration:133;
}

object triplex_meter:215 {
	name 587_73455_AB_M;
	phases "BS";
	nominal_voltage 120;
	voltage_1 -60.000-103.923j;
	voltage_2 -60.000-103.923j;
	voltage_N 0;
}

object triplex_node:216 {
	name 587_73455_AB_TX;
	parent 587_73455_AB_M;
	phases BS;
	nominal_voltage 120;
	latitude 50N7'2.615";
	longitude 121W23'19.759";
	power_1 4.8288584915624+5.12146987452025j;
	voltage_1 -60.000-103.923j;
	voltage_2 -60.000-103.923j;
	voltage_N 0;
}

object transformer:217  {
	phases "AS";
	from 83_607415;
	to 83_607415_AA_M;
	configuration transformer_configuration:118;
}

object triplex_meter:218 {
	name 83_607415_AA_M;
	phases "AS";
	nominal_voltage 120;
	voltage_1 120;
	voltage_2 120;
	voltage_N 0;
}

object triplex_node:219 {
	name 83_607415_AA_TX;
	parent 83_607415_AA_M;
	phases AS;
	nominal_voltage 120;
	latitude 50N7'5.424";
	longitude 121W23'41.145";
	power_1 8.22114498244995+8.66751629700788j;
	voltage_1 120;
	voltage_2 120;
	voltage_N 0;
}

object transformer:220  {
	phases "AS";
	from 587_73739;
	to 587_73739_AA_M;
	configuration transformer_configuration:119;
}

object triplex_meter:221 {
	name 587_73739_AA_M;
	phases "AS";
	nominal_voltage 120;
	voltage_1 120;
	voltage_2 120;
	voltage_N 0;
}

object triplex_node:222 {
	name 587_73739_AA_TX;
	parent 587_73739_AA_M;
	phases AS;
	nominal_voltage 120;
	latitude 50N8'52.127";
	longitude 121W23'16.620";
	power_1 4.93268698946997+5.20050977820472j;
	voltage_1 120;
	voltage_2 120;
	voltage_N 0;
}

object transformer:223  {
	phases "CS";
	from 587_73739;
	to 587_73739_AC_M;
	configuration transformer_configuration:149;
}

object triplex_meter:224 {
	name 587_73739_AC_M;
	phases "CS";
	nominal_voltage 120;
	voltage_1 -60.000+103.923j;
	voltage_2 -60.000+103.923j;
	voltage_N 0;
}

object triplex_node:225 {
	name 587_73739_AC_TX;
	parent 587_73739_AC_M;
	phases AS;
	nominal_voltage 120;
	latitude 50N8'52.127";
	longitude 121W23'16.620";
	power_1 0+0j;
	voltage_1 -60.000+103.923j;
	voltage_2 -60.000+103.923j;
	voltage_N 0;
}

object transformer:226  {
	phases "AS";
	from 82_371292_BOMT411007;
	to 82_371292_BOMT411007_AA_M;
	configuration transformer_configuration:120;
}

object triplex_meter:227 {
	name 82_371292_BOMT411007_AA_M;
	phases "AS";
	nominal_voltage 120;
	voltage_1 120;
	voltage_2 120;
	voltage_N 0;
}

object triplex_node:228 {
	name 82_371292_BOMT411007_AA_TX;
	parent 82_371292_BOMT411007_AA_M;
	phases AS;
	nominal_voltage 120;
	latitude 50N11'19.636";
	longitude 121W30'28.686";
	power_1 8.22114498244995+8.66751629700788j;
	voltage_1 120;
	voltage_2 120;
	voltage_N 0;
}

object transformer:229  {
	phases "AS";
	from 587_60404;
	to 587_60404_RA_M;
	configuration transformer_configuration:118;
}

object triplex_meter:230 {
	name 587_60404_RA_M;
	phases "AS";
	nominal_voltage 120;
	voltage_1 120;
	voltage_2 120;
	voltage_N 0;
}

object triplex_node:231 {
	name 587_60404_RA_TX;
	parent 587_60404_RA_M;
	phases AS;
	nominal_voltage 120;
	latitude 50N10'44.737";
	longitude 121W29'6.439";
	power_1 8.22114498244995+8.66751629700788j;
	voltage_1 120;
	voltage_2 120;
	voltage_N 0;
}

object transformer:232  {
	phases "BS";
	from 587_60404;
	to 587_60404_RB_M;
	configuration transformer_configuration:134;
}

object triplex_meter:233 {
	name 587_60404_RB_M;
	phases "BS";
	nominal_voltage 120;
	voltage_1 -60.000-103.923j;
	voltage_2 -60.000-103.923j;
	voltage_N 0;
}

object triplex_node:234 {
	name 587_60404_RB_TX;
	parent 587_60404_RB_M;
	phases BS;
	nominal_voltage 120;
	latitude 50N10'44.737";
	longitude 121W29'6.439";
	power_1 8.04809748593734+8.53578312420042j;
	voltage_1 -60.000-103.923j;
	voltage_2 -60.000-103.923j;
	voltage_N 0;
}

object transformer:235  {
	phases "CS";
	from 587_60404;
	to 587_60404_RC_M;
	configuration transformer_configuration:148;
}

object triplex_meter:236 {
	name 587_60404_RC_M;
	phases "CS";
	nominal_voltage 120;
	voltage_1 -60.000+103.923j;
	voltage_2 -60.000+103.923j;
	voltage_N 0;
}

object triplex_node:237 {
	name 587_60404_RC_TX;
	parent 587_60404_RC_M;
	phases CS;
	nominal_voltage 120;
	latitude 50N10'44.737";
	longitude 121W29'6.439";
	power_1 22.3348470212101+23.6811308510734j;
	voltage_1 -60.000+103.923j;
	voltage_2 -60.000+103.923j;
	voltage_N 0;
}

object transformer:238  {
	phases "AS";
	from 83_926801;
	to 83_926801_AA_M;
	configuration transformer_configuration:118;
}

object triplex_meter:239 {
	name 83_926801_AA_M;
	phases "AS";
	nominal_voltage 120;
	voltage_1 120;
	voltage_2 120;
	voltage_N 0;
}

object triplex_node:240 {
	name 83_926801_AA_TX;
	parent 83_926801_AA_M;
	phases AS;
	nominal_voltage 120;
	latitude 50N8'48.491";
	longitude 121W23'17.851";
	power_1 8.22114498244995+8.66751629700788j;
	voltage_1 120;
	voltage_2 120;
	voltage_N 0;
}

object transformer:241  {
	phases "BS";
	from 83_674601;
	to 83_674601_RB_M;
	configuration transformer_configuration:135;
}

object triplex_meter:242 {
	name 83_674601_RB_M;
	phases "BS";
	nominal_voltage 120;
	voltage_1 -60.000-103.923j;
	voltage_2 -60.000-103.923j;
	voltage_N 0;
}

object triplex_node:243 {
	name 83_674601_RB_TX;
	parent 83_674601_RB_M;
	phases BS;
	nominal_voltage 120;
	latitude 50N10'40.338";
	longitude 121W29'47.075";
	power_1 12.8769559774997+13.6572529987207j;
	voltage_1 -60.000-103.923j;
	voltage_2 -60.000-103.923j;
	voltage_N 0;
}

object transformer:244  {
	phases "AS";
	from 83_225278;
	to 83_225278_AA_M;
	configuration transformer_configuration:119;
}

object triplex_meter:245 {
	name 83_225278_AA_M;
	phases "AS";
	nominal_voltage 120;
	voltage_1 120;
	voltage_2 120;
	voltage_N 0;
}

object triplex_node:246 {
	name 83_225278_AA_TX;
	parent 83_225278_AA_M;
	phases AS;
	nominal_voltage 120;
	latitude 50N8'24.561";
	longitude 121W22'38.391";
	power_1 4.93268698946997+5.20050977820472j;
	voltage_1 120;
	voltage_2 120;
	voltage_N 0;
}

object transformer:247  {
	phases "A|B|C|N";
	from 83_228975;
	to 83_228975_A_M;
	configuration transformer_configuration:168;
}

object meter:248 {
	name 83_228975_A_M;
	phases "ABCN";
	nominal_voltage 19918.584;
	voltage_A 19918.584+0.0j;
	voltage_B -9959.292-17250.000j;
	voltage_C -9959.292+17250.000j;
}
object transformer:249  {
	phases "BS";
	from 587_60368;
	to 587_60368_RB_M;
	configuration transformer_configuration:133;
}

object triplex_meter:250 {
	name 587_60368_RB_M;
	phases "BS";
	nominal_voltage 120;
	voltage_1 -60.000-103.923j;
	voltage_2 -60.000-103.923j;
	voltage_N 0;
}

object triplex_node:251 {
	name 587_60368_RB_TX;
	parent 587_60368_RB_M;
	phases BS;
	nominal_voltage 120;
	latitude 50N10'31.264";
	longitude 121W29'47.214";
	power_1 4.8288584915624+5.12146987452025j;
	voltage_1 -60.000-103.923j;
	voltage_2 -60.000-103.923j;
	voltage_N 0;
}

object transformer:252  {
	phases "AS";
	from 83_225371;
	to 83_225371_AA_M;
	configuration transformer_configuration:119;
}

object triplex_meter:253 {
	name 83_225371_AA_M;
	phases "AS";
	nominal_voltage 120;
	voltage_1 120;
	voltage_2 120;
	voltage_N 0;
}

object triplex_node:254 {
	name 83_225371_AA_TX;
	parent 83_225371_AA_M;
	phases AS;
	nominal_voltage 120;
	latitude 50N8'17.257";
	longitude 121W22'48.833";
	power_1 4.93268698946997+5.20050977820472j;
	voltage_1 120;
	voltage_2 120;
	voltage_N 0;
}

object transformer:255  {
	phases "BS";
	from 76_297369;
	to 76_297369_RB_M;
	configuration transformer_configuration:134;
}

object triplex_meter:256 {
	name 76_297369_RB_M;
	phases "BS";
	nominal_voltage 120;
	voltage_1 -60.000-103.923j;
	voltage_2 -60.000-103.923j;
	voltage_N 0;
}

object triplex_node:257 {
	name 76_297369_RB_TX;
	parent 76_297369_RB_M;
	phases BS;
	nominal_voltage 120;
	latitude 50N10'27.438";
	longitude 121W29'46.074";
	power_1 8.04809748593734+8.53578312420042j;
	voltage_1 -60.000-103.923j;
	voltage_2 -60.000-103.923j;
	voltage_N 0;
}

object transformer:258  {
	phases "BS";
	from 76_40971;
	to 76_40971_RB_M;
	configuration transformer_configuration:133;
}

object triplex_meter:259 {
	name 76_40971_RB_M;
	phases "BS";
	nominal_voltage 120;
	voltage_1 -60.000-103.923j;
	voltage_2 -60.000-103.923j;
	voltage_N 0;
}

object triplex_node:260 {
	name 76_40971_RB_TX;
	parent 76_40971_RB_M;
	phases BS;
	nominal_voltage 120;
	latitude 50N10'31.383";
	longitude 121W29'50.852";
	power_1 4.8288584915624+5.12146987452025j;
	voltage_1 -60.000-103.923j;
	voltage_2 -60.000-103.923j;
	voltage_N 0;
}

object transformer:261  {
	phases "AS";
	from 83_225372;
	to 83_225372_AA_M;
	configuration transformer_configuration:119;
}

object triplex_meter:262 {
	name 83_225372_AA_M;
	phases "AS";
	nominal_voltage 120;
	voltage_1 120;
	voltage_2 120;
	voltage_N 0;
}

object triplex_node:263 {
	name 83_225372_AA_TX;
	parent 83_225372_AA_M;
	phases AS;
	nominal_voltage 120;
	latitude 50N8'26.341";
	longitude 121W22'47.457";
	power_1 4.93268698946997+5.20050977820472j;
	voltage_1 120;
	voltage_2 120;
	voltage_N 0;
}

object transformer:264  {
	phases "A|B|C|N";
	from 83_228483;
	to 83_228483_A_M;
	configuration transformer_configuration:169;
}

object meter:265 {
	name 83_228483_A_M;
	phases "ABCN";
	nominal_voltage 19918.584;
	voltage_A 19918.584+0.0j;
	voltage_B -9959.292-17250.000j;
	voltage_C -9959.292+17250.000j;
}
object transformer:266  {
	phases "BS";
	from 587_73621;
	to 587_73621_AB_M;
	configuration transformer_configuration:136;
}

object triplex_meter:267 {
	name 587_73621_AB_M;
	phases "BS";
	nominal_voltage 120;
	voltage_1 -60.000-103.923j;
	voltage_2 -60.000-103.923j;
	voltage_N 0;
}

object triplex_node:268 {
	name 587_73621_AB_TX;
	parent 587_73621_AB_M;
	phases BS;
	nominal_voltage 120;
	latitude 50N8'21.051";
	longitude 121W21'59.727";
	power_1 9.65771698312481+10.2429397490405j;
	voltage_1 -60.000-103.923j;
	voltage_2 -60.000-103.923j;
	voltage_N 0;
}

object transformer:269  {
	phases "AS";
	from 80_19160;
	to 80_19160_AA_M;
	configuration transformer_configuration:118;
}

object triplex_meter:270 {
	name 80_19160_AA_M;
	phases "AS";
	nominal_voltage 120;
	voltage_1 120;
	voltage_2 120;
	voltage_N 0;
}

object triplex_node:271 {
	name 80_19160_AA_TX;
	parent 80_19160_AA_M;
	phases AS;
	nominal_voltage 120;
	latitude 50N7'4.239";
	longitude 121W26'2.045";
	power_1 8.22114498244995+8.66751629700788j;
	voltage_1 120;
	voltage_2 120;
	voltage_N 0;
}

object transformer:272  {
	phases "CS";
	from 80_19160;
	to 80_19160_AC_M;
	configuration transformer_configuration:148;
}

object triplex_meter:273 {
	name 80_19160_AC_M;
	phases "CS";
	nominal_voltage 120;
	voltage_1 -60.000+103.923j;
	voltage_2 -60.000+103.923j;
	voltage_N 0;
}

object triplex_node:274 {
	name 80_19160_AC_TX;
	parent 80_19160_AC_M;
	phases AS;
	nominal_voltage 120;
	latitude 50N7'4.239";
	longitude 121W26'2.045";
	power_1 0+0j;
	voltage_1 -60.000+103.923j;
	voltage_2 -60.000+103.923j;
	voltage_N 0;
}

object transformer:275  {
	phases "A|B|C|N";
	from 83_228469;
	to 83_228469_A_M;
	configuration transformer_configuration:171;
}

object meter:276 {
	name 83_228469_A_M;
	phases "ABCN";
	nominal_voltage 19918.584;
	voltage_A 19918.584+0.0j;
	voltage_B -9959.292-17250.000j;
	voltage_C -9959.292+17250.000j;
}
object transformer:277  {
	phases "BS";
	from 83_228470;
	to 83_228470_AB_M;
	configuration transformer_configuration:136;
}

object triplex_meter:278 {
	name 83_228470_AB_M;
	phases "BS";
	nominal_voltage 120;
	voltage_1 -60.000-103.923j;
	voltage_2 -60.000-103.923j;
	voltage_N 0;
}

object triplex_node:279 {
	name 83_228470_AB_TX;
	parent 83_228470_AB_M;
	phases BS;
	nominal_voltage 120;
	latitude 50N6'49.935";
	longitude 121W25'22.607";
	power_1 9.65771698312481+10.2429397490405j;
	voltage_1 -60.000-103.923j;
	voltage_2 -60.000-103.923j;
	voltage_N 0;
}

object transformer:280  {
	phases "AS";
	from 83_225277;
	to 83_225277_AA_M;
	configuration transformer_configuration:121;
}

object triplex_meter:281 {
	name 83_225277_AA_M;
	phases "AS";
	nominal_voltage 120;
	voltage_1 120;
	voltage_2 120;
	voltage_N 0;
}

object triplex_node:282 {
	name 83_225277_AA_TX;
	parent 83_225277_AA_M;
	phases AS;
	nominal_voltage 120;
	latitude 50N8'35.598";
	longitude 121W22'37.076";
	power_1 9.86537397893994+10.4010195564094j;
	voltage_1 120;
	voltage_2 120;
	voltage_N 0;
}

object transformer:283  {
	phases "BS";
	from 83_228484;
	to 83_228484_AB_M;
	configuration transformer_configuration:135;
}

object triplex_meter:284 {
	name 83_228484_AB_M;
	phases "BS";
	nominal_voltage 120;
	voltage_1 -60.000-103.923j;
	voltage_2 -60.000-103.923j;
	voltage_N 0;
}

object triplex_node:285 {
	name 83_228484_AB_TX;
	parent 83_228484_AB_M;
	phases BS;
	nominal_voltage 120;
	latitude 50N7'47.797";
	longitude 121W23'57.213";
	power_1 16.0961949718747+17.0715662484008j;
	voltage_1 -60.000-103.923j;
	voltage_2 -60.000-103.923j;
	voltage_N 0;
}

object transformer:286  {
	phases "AS";
	from 587_73534;
	to 587_73534_AA_M;
	configuration transformer_configuration:118;
}

object triplex_meter:287 {
	name 587_73534_AA_M;
	phases "AS";
	nominal_voltage 120;
	voltage_1 120;
	voltage_2 120;
	voltage_N 0;
}

object triplex_node:288 {
	name 587_73534_AA_TX;
	parent 587_73534_AA_M;
	phases AS;
	nominal_voltage 120;
	latitude 50N7'43.169";
	longitude 121W23'18.984";
	power_1 8.22114498244995+8.66751629700788j;
	voltage_1 120;
	voltage_2 120;
	voltage_N 0;
}

object transformer:289  {
	phases "CS";
	from 587_73534;
	to 587_73534_AC_M;
	configuration transformer_configuration:148;
}

object triplex_meter:290 {
	name 587_73534_AC_M;
	phases "CS";
	nominal_voltage 120;
	voltage_1 -60.000+103.923j;
	voltage_2 -60.000+103.923j;
	voltage_N 0;
}

object triplex_node:291 {
	name 587_73534_AC_TX;
	parent 587_73534_AC_M;
	phases AS;
	nominal_voltage 120;
	latitude 50N7'43.169";
	longitude 121W23'18.984";
	power_1 4.78603864740218+5.07452803951572j;
	voltage_1 -60.000+103.923j;
	voltage_2 -60.000+103.923j;
	voltage_N 0;
}

object transformer:292  {
	phases "BS";
	from 83_225283;
	to 83_225283_AB_M;
	configuration transformer_configuration:133;
}

object triplex_meter:293 {
	name 83_225283_AB_M;
	phases "BS";
	nominal_voltage 120;
	voltage_1 -60.000-103.923j;
	voltage_2 -60.000-103.923j;
	voltage_N 0;
}

object triplex_node:294 {
	name 83_225283_AB_TX;
	parent 83_225283_AB_M;
	phases BS;
	nominal_voltage 120;
	latitude 50N8'18.403";
	longitude 121W21'55.938";
	power_1 4.8288584915624+5.12146987452025j;
	voltage_1 -60.000-103.923j;
	voltage_2 -60.000-103.923j;
	voltage_N 0;
}

object transformer:295  {
	phases "A|B|C|N";
	from 83_230030;
	to 83_230030_A_M;
	configuration transformer_configuration:175;
}

object meter:296 {
	name 83_230030_A_M;
	phases "ABCN";
	nominal_voltage 19918.584;
	voltage_A 19918.584+0.0j;
	voltage_B -9959.292-17250.000j;
	voltage_C -9959.292+17250.000j;
}
object transformer:297  {
	phases "A|B|C|N";
	from 587_59911;
	to 587_59911_A_M;
	configuration transformer_configuration:176;
}

object meter:298 {
	name 587_59911_A_M;
	phases "ABCN";
	nominal_voltage 19918.584;
	voltage_A 19918.584+0.0j;
	voltage_B -9959.292-17250.000j;
	voltage_C -9959.292+17250.000j;
}
object transformer:299  {
	phases "A|B|C|N";
	from 83_438755;
	to 83_438755_A_M;
	configuration transformer_configuration:177;
}

object meter:300 {
	name 83_438755_A_M;
	phases "ABCN";
	nominal_voltage 19918.584;
	voltage_A 19918.584+0.0j;
	voltage_B -9959.292-17250.000j;
	voltage_C -9959.292+17250.000j;
}
object transformer:301  {
	phases "BS";
	from 83_228566;
	to 83_228566_AB_M;
	configuration transformer_configuration:133;
}

object triplex_meter:302 {
	name 83_228566_AB_M;
	phases "BS";
	nominal_voltage 120;
	voltage_1 -60.000-103.923j;
	voltage_2 -60.000-103.923j;
	voltage_N 0;
}

object triplex_node:303 {
	name 83_228566_AB_TX;
	parent 83_228566_AB_M;
	phases BS;
	nominal_voltage 120;
	latitude 50N8'57.865";
	longitude 121W23'17.840";
	power_1 4.8288584915624+5.12146987452025j;
	voltage_1 -60.000-103.923j;
	voltage_2 -60.000-103.923j;
	voltage_N 0;
}

object transformer:304  {
	phases "AS";
	from 83_830863;
	to 83_830863_AA_M;
	configuration transformer_configuration:123;
}

object triplex_meter:305 {
	name 83_830863_AA_M;
	phases "AS";
	nominal_voltage 120;
	voltage_1 120;
	voltage_2 120;
	voltage_N 0;
}

object triplex_node:306 {
	name 83_830863_AA_TX;
	parent 83_830863_AA_M;
	phases AS;
	nominal_voltage 120;
	latitude 50N8'15.348";
	longitude 121W22'32.126";
	power_1 37.8172669192698+39.8705749662362j;
	voltage_1 120;
	voltage_2 120;
	voltage_N 0;
}

object transformer:307  {
	phases "AS";
	from 587_391399;
	to 587_391399_AA_M;
	configuration transformer_configuration:121;
}

object triplex_meter:308 {
	name 587_391399_AA_M;
	phases "AS";
	nominal_voltage 120;
	voltage_1 120;
	voltage_2 120;
	voltage_N 0;
}

object triplex_node:309 {
	name 587_391399_AA_TX;
	parent 587_391399_AA_M;
	phases AS;
	nominal_voltage 120;
	latitude 50N8'24.320";
	longitude 121W22'6.654";
	power_1 9.86537397893994+10.4010195564094j;
	voltage_1 120;
	voltage_2 120;
	voltage_N 0;
}

object transformer:310  {
	phases "BS";
	from 83_228476;
	to 83_228476_AB_M;
	configuration transformer_configuration:134;
}

object triplex_meter:311 {
	name 83_228476_AB_M;
	phases "BS";
	nominal_voltage 120;
	voltage_1 -60.000-103.923j;
	voltage_2 -60.000-103.923j;
	voltage_N 0;
}

object triplex_node:312 {
	name 83_228476_AB_TX;
	parent 83_228476_AB_M;
	phases BS;
	nominal_voltage 120;
	latitude 50N7'50.668";
	longitude 121W24'7.035";
	power_1 8.04809748593734+8.53578312420042j;
	voltage_1 -60.000-103.923j;
	voltage_2 -60.000-103.923j;
	voltage_N 0;
}

object transformer:313  {
	phases "BS";
	from 587_66100;
	to 587_66100_AB_M;
	configuration transformer_configuration:138;
}

object triplex_meter:314 {
	name 587_66100_AB_M;
	phases "BS";
	nominal_voltage 120;
	voltage_1 -60.000-103.923j;
	voltage_2 -60.000-103.923j;
	voltage_N 0;
}

object triplex_node:315 {
	name 587_66100_AB_TX;
	parent 587_66100_AB_M;
	phases BS;
	nominal_voltage 120;
	latitude 50N7'57.834";
	longitude 121W24'27.491";
	power_1 3.21923899437494+3.41431324968017j;
	voltage_1 -60.000-103.923j;
	voltage_2 -60.000-103.923j;
	voltage_N 0;
}

object transformer:316  {
	phases "BS";
	from 83_228446;
	to 83_228446_AB_M;
	configuration transformer_configuration:136;
}

object triplex_meter:317 {
	name 83_228446_AB_M;
	phases "BS";
	nominal_voltage 120;
	voltage_1 -60.000-103.923j;
	voltage_2 -60.000-103.923j;
	voltage_N 0;
}

object triplex_node:318 {
	name 83_228446_AB_TX;
	parent 83_228446_AB_M;
	phases BS;
	nominal_voltage 120;
	latitude 50N8'15.380";
	longitude 121W23'57.272";
	power_1 9.65771698312481+10.2429397490405j;
	voltage_1 -60.000-103.923j;
	voltage_2 -60.000-103.923j;
	voltage_N 0;
}

object transformer:319  {
	phases "AS";
	from 587_65948;
	to 587_65948_AA_M;
	configuration transformer_configuration:124;
}

object triplex_meter:320 {
	name 587_65948_AA_M;
	phases "AS";
	nominal_voltage 120;
	voltage_1 120;
	voltage_2 120;
	voltage_N 0;
}

object triplex_node:321 {
	name 587_65948_AA_TX;
	parent 587_65948_AA_M;
	phases AS;
	nominal_voltage 120;
	latitude 50N7'2.866";
	longitude 121W24'3.289";
	power_1 3.28845799297998+3.46700651880315j;
	voltage_1 120;
	voltage_2 120;
	voltage_N 0;
}

object transformer:322  {
	phases "CS";
	from 587_65948;
	to 587_65948_AC_M;
	configuration transformer_configuration:154;
}

object triplex_meter:323 {
	name 587_65948_AC_M;
	phases "CS";
	nominal_voltage 120;
	voltage_1 -60.000+103.923j;
	voltage_2 -60.000+103.923j;
	voltage_N 0;
}

object triplex_node:324 {
	name 587_65948_AC_TX;
	parent 587_65948_AC_M;
	phases AS;
	nominal_voltage 120;
	latitude 50N7'2.866";
	longitude 121W24'3.289";
	power_1 0+0j;
	voltage_1 -60.000+103.923j;
	voltage_2 -60.000+103.923j;
	voltage_N 0;
}

object transformer:325  {
	phases "BS";
	from 587_73552;
	to 587_73552_AB_M;
	configuration transformer_configuration:135;
}

object triplex_meter:326 {
	name 587_73552_AB_M;
	phases "BS";
	nominal_voltage 120;
	voltage_1 -60.000-103.923j;
	voltage_2 -60.000-103.923j;
	voltage_N 0;
}

object triplex_node:327 {
	name 587_73552_AB_TX;
	parent 587_73552_AB_M;
	phases BS;
	nominal_voltage 120;
	latitude 50N7'55.869";
	longitude 121W21'8.488";
	power_1 12.8769559774997+13.6572529987207j;
	voltage_1 -60.000-103.923j;
	voltage_2 -60.000-103.923j;
	voltage_N 0;
}

object transformer:328  {
	phases "BS";
	from 83_225291;
	to 83_225291_AB_M;
	configuration transformer_configuration:134;
}

object triplex_meter:329 {
	name 83_225291_AB_M;
	phases "BS";
	nominal_voltage 120;
	voltage_1 -60.000-103.923j;
	voltage_2 -60.000-103.923j;
	voltage_N 0;
}

object triplex_node:330 {
	name 83_225291_AB_TX;
	parent 83_225291_AB_M;
	phases BS;
	nominal_voltage 120;
	latitude 50N7'54.835";
	longitude 121W21'8.585";
	power_1 8.04809748593734+8.53578312420042j;
	voltage_1 -60.000-103.923j;
	voltage_2 -60.000-103.923j;
	voltage_N 0;
}

object transformer:331  {
	phases "BS";
	from 587_73485;
	to 587_73485_AB_M;
	configuration transformer_configuration:133;
}

object triplex_meter:332 {
	name 587_73485_AB_M;
	phases "BS";
	nominal_voltage 120;
	voltage_1 -60.000-103.923j;
	voltage_2 -60.000-103.923j;
	voltage_N 0;
}

object triplex_node:333 {
	name 587_73485_AB_TX;
	parent 587_73485_AB_M;
	phases BS;
	nominal_voltage 120;
	latitude 50N7'28.818";
	longitude 121W22'0.263";
	power_1 4.8288584915624+5.12146987452025j;
	voltage_1 -60.000-103.923j;
	voltage_2 -60.000-103.923j;
	voltage_N 0;
}

object transformer:334  {
	phases "BS";
	from 83_225293;
	to 83_225293_AB_M;
	configuration transformer_configuration:133;
}

object triplex_meter:335 {
	name 83_225293_AB_M;
	phases "BS";
	nominal_voltage 120;
	voltage_1 -60.000-103.923j;
	voltage_2 -60.000-103.923j;
	voltage_N 0;
}

object triplex_node:336 {
	name 83_225293_AB_TX;
	parent 83_225293_AB_M;
	phases BS;
	nominal_voltage 120;
	latitude 50N7'42.050";
	longitude 121W21'51.134";
	power_1 4.8288584915624+5.12146987452025j;
	voltage_1 -60.000-103.923j;
	voltage_2 -60.000-103.923j;
	voltage_N 0;
}

object transformer:337  {
	phases "BS";
	from 83_225282;
	to 83_225282_AB_M;
	configuration transformer_configuration:134;
}

object triplex_meter:338 {
	name 83_225282_AB_M;
	phases "BS";
	nominal_voltage 120;
	voltage_1 -60.000-103.923j;
	voltage_2 -60.000-103.923j;
	voltage_N 0;
}

object triplex_node:339 {
	name 83_225282_AB_TX;
	parent 83_225282_AB_M;
	phases BS;
	nominal_voltage 120;
	latitude 50N8'23.971";
	longitude 121W21'53.066";
	power_1 8.04809748593734+8.53578312420042j;
	voltage_1 -60.000-103.923j;
	voltage_2 -60.000-103.923j;
	voltage_N 0;
}

object transformer:340  {
	phases "BS";
	from 83_225285;
	to 83_225285_AB_M;
	configuration transformer_configuration:133;
}

object triplex_meter:341 {
	name 83_225285_AB_M;
	phases "BS";
	nominal_voltage 120;
	voltage_1 -60.000-103.923j;
	voltage_2 -60.000-103.923j;
	voltage_N 0;
}

object triplex_node:342 {
	name 83_225285_AB_TX;
	parent 83_225285_AB_M;
	phases BS;
	nominal_voltage 120;
	latitude 50N8'24.321";
	longitude 121W22'6.445";
	power_1 4.8288584915624+5.12146987452025j;
	voltage_1 -60.000-103.923j;
	voltage_2 -60.000-103.923j;
	voltage_N 0;
}

object transformer:343  {
	phases "BS";
	from 83_228533;
	to 83_228533_AB_M;
	configuration transformer_configuration:134;
}

object triplex_meter:344 {
	name 83_228533_AB_M;
	phases "BS";
	nominal_voltage 120;
	voltage_1 -60.000-103.923j;
	voltage_2 -60.000-103.923j;
	voltage_N 0;
}

object triplex_node:345 {
	name 83_228533_AB_TX;
	parent 83_228533_AB_M;
	phases BS;
	nominal_voltage 120;
	latitude 50N9'3.386";
	longitude 121W23'16.285";
	power_1 8.04809748593734+8.53578312420042j;
	voltage_1 -60.000-103.923j;
	voltage_2 -60.000-103.923j;
	voltage_N 0;
}

object transformer:346  {
	phases "A|B|C|N";
	from 587_66043;
	to 587_66043_A_M;
	configuration transformer_configuration:182;
}

object meter:347 {
	name 587_66043_A_M;
	phases "ABCN";
	nominal_voltage 19918.584;
	voltage_A 19918.584+0.0j;
	voltage_B -9959.292-17250.000j;
	voltage_C -9959.292+17250.000j;
}
object transformer:348  {
	phases "A|B|C|N";
	from 76_40992;
	to 76_40992_A_M;
	configuration transformer_configuration:176;
}

object meter:349 {
	name 76_40992_A_M;
	phases "ABCN";
	nominal_voltage 19918.584;
	voltage_A 19918.584+0.0j;
	voltage_B -9959.292-17250.000j;
	voltage_C -9959.292+17250.000j;
}
object transformer:350  {
	phases "BS";
	from 83_432705;
	to 83_432705_RB_M;
	configuration transformer_configuration:134;
}

object triplex_meter:351 {
	name 83_432705_RB_M;
	phases "BS";
	nominal_voltage 120;
	voltage_1 -60.000-103.923j;
	voltage_2 -60.000-103.923j;
	voltage_N 0;
}

object triplex_node:352 {
	name 83_432705_RB_TX;
	parent 83_432705_RB_M;
	phases BS;
	nominal_voltage 120;
	latitude 50N7'55.907";
	longitude 121W20'59.346";
	power_1 8.04809748593734+8.53578312420042j;
	voltage_1 -60.000-103.923j;
	voltage_2 -60.000-103.923j;
	voltage_N 0;
}

object transformer:353  {
	phases "BS";
	from 83_432706;
	to 83_432706_RB_M;
	configuration transformer_configuration:133;
}

object triplex_meter:354 {
	name 83_432706_RB_M;
	phases "BS";
	nominal_voltage 120;
	voltage_1 -60.000-103.923j;
	voltage_2 -60.000-103.923j;
	voltage_N 0;
}

object triplex_node:355 {
	name 83_432706_RB_TX;
	parent 83_432706_RB_M;
	phases BS;
	nominal_voltage 120;
	latitude 50N7'59.818";
	longitude 121W20'59.930";
	power_1 4.8288584915624+5.12146987452025j;
	voltage_1 -60.000-103.923j;
	voltage_2 -60.000-103.923j;
	voltage_N 0;
}

object transformer:356  {
	phases "BS";
	from 83_225290;
	to 83_225290_RB_M;
	configuration transformer_configuration:134;
}

object triplex_meter:357 {
	name 83_225290_RB_M;
	phases "BS";
	nominal_voltage 120;
	voltage_1 -60.000-103.923j;
	voltage_2 -60.000-103.923j;
	voltage_N 0;
}

object triplex_node:358 {
	name 83_225290_RB_TX;
	parent 83_225290_RB_M;
	phases BS;
	nominal_voltage 120;
	latitude 50N7'54.713";
	longitude 121W21'3.287";
	power_1 8.04809748593734+8.53578312420042j;
	voltage_1 -60.000-103.923j;
	voltage_2 -60.000-103.923j;
	voltage_N 0;
}

object transformer:359  {
	phases "BS";
	from 83_225298;
	to 83_225298_AB_M;
	configuration transformer_configuration:135;
}

object triplex_meter:360 {
	name 83_225298_AB_M;
	phases "BS";
	nominal_voltage 120;
	voltage_1 -60.000-103.923j;
	voltage_2 -60.000-103.923j;
	voltage_N 0;
}

object triplex_node:361 {
	name 83_225298_AB_TX;
	parent 83_225298_AB_M;
	phases BS;
	nominal_voltage 120;
	latitude 50N7'13.649";
	longitude 121W22'0.644";
	power_1 16.0961949718747+17.0715662484008j;
	voltage_1 -60.000-103.923j;
	voltage_2 -60.000-103.923j;
	voltage_N 0;
}

object transformer:362  {
	phases "BS";
	from 83_225296;
	to 83_225296_AB_M;
	configuration transformer_configuration:136;
}

object triplex_meter:363 {
	name 83_225296_AB_M;
	phases "BS";
	nominal_voltage 120;
	voltage_1 -60.000-103.923j;
	voltage_2 -60.000-103.923j;
	voltage_N 0;
}

object triplex_node:364 {
	name 83_225296_AB_TX;
	parent 83_225296_AB_M;
	phases BS;
	nominal_voltage 120;
	latitude 50N7'28.767";
	longitude 121W22'6.052";
	power_1 9.65771698312481+10.2429397490405j;
	voltage_1 -60.000-103.923j;
	voltage_2 -60.000-103.923j;
	voltage_N 0;
}

object transformer:365  {
	phases "BS";
	from 83_432709;
	to 83_432709_AB_M;
	configuration transformer_configuration:133;
}

object triplex_meter:366 {
	name 83_432709_AB_M;
	phases "BS";
	nominal_voltage 120;
	voltage_1 -60.000-103.923j;
	voltage_2 -60.000-103.923j;
	voltage_N 0;
}

object triplex_node:367 {
	name 83_432709_AB_TX;
	parent 83_432709_AB_M;
	phases BS;
	nominal_voltage 120;
	latitude 50N8'32.161";
	longitude 121W21'59.452";
	power_1 4.8288584915624+5.12146987452025j;
	voltage_1 -60.000-103.923j;
	voltage_2 -60.000-103.923j;
	voltage_N 0;
}

object transformer:368  {
	phases "BS";
	from 83_225281;
	to 83_225281_AB_M;
	configuration transformer_configuration:133;
}

object triplex_meter:369 {
	name 83_225281_AB_M;
	phases "BS";
	nominal_voltage 120;
	voltage_1 -60.000-103.923j;
	voltage_2 -60.000-103.923j;
	voltage_N 0;
}
