//*********************************************
// $Id: R4-12.47-1.glm 1132 2008-11-18 22:36:10Z dchassin $ 
//*********************************************

clock { 
	 timezone EST+5EDT;
	 timestamp '2000-01-01 0:00:00';
}

//*********************************************
// modules
module powerflow;


object triplex_line_conductor: {
	name 1/0 AA triplex;
	resistance 0.97;
	geometric_mean_radius 0.0111;
}

object triplex_line_configuration:1 {
	conductor_1 1/0 AA triplex;
	conductor_2 1/0 AA triplex;
	conductor_N 1/0 AA triplex;
	insulation_thickness 0.08;
	diameter 0.368;
}

object transformer:108  {
	phases "AS";
	from 103624462ABC;
	to 103624462ABC_UA_M;
	configuration transformer_configuration:51;
}

object triplex_meter:109 {
	name 103624462ABC_UA_M;
	phases "AS";
	nominal_voltage 120;
	voltage_1 120;
	voltage_2 120;
	voltage_N 0;
}

object triplex_node:110 {
	name 103624462ABC_UA_TX;
	parent 103624462ABC_UA_M;
	phases AS;
	nominal_voltage 120;
	latitude 55N12'16.315";
	longitude 118W44'50.237";
	power_1 11.1081724322514+5.78745742499539j;
	voltage_1 120;
	voltage_2 120;
	voltage_N 0;
}

object transformer:111  {
	phases "CS";
	from 103624462ABC;
	to 103624462ABC_UC_M;
	configuration transformer_configuration:72;
}

object triplex_meter:112 {
	name 103624462ABC_UC_M;
	phases "CS";
	nominal_voltage 120;
	voltage_1 -60.000+103.923j;
	voltage_2 -60.000+103.923j;
	voltage_N 0;
}

object triplex_node:113 {
	name 103624462ABC_UC_TX;
	parent 103624462ABC_UC_M;
	phases AS;
	nominal_voltage 120;
	latitude 55N12'16.315";
	longitude 118W44'50.237";
	power_1 0+0j;
	voltage_1 -60.000+103.923j;
	voltage_2 -60.000+103.923j;
	voltage_N 0;
}

object transformer:114  {
	phases "AS";
	from 104573539ABC;
	to 104573539ABC_UA_M;
	configuration transformer_configuration:51;
}

object triplex_meter:115 {
	name 104573539ABC_UA_M;
	phases "AS";
	nominal_voltage 120;
	voltage_1 120;
	voltage_2 120;
	voltage_N 0;
}

object triplex_node:116 {
	name 104573539ABC_UA_TX;
	parent 104573539ABC_UA_M;
	phases AS;
	nominal_voltage 120;
	latitude 55N14'5.227";
	longitude 118W40'31.786";
	power_1 11.1081724322514+5.78745742499539j;
	voltage_1 120;
	voltage_2 120;
	voltage_N 0;
}

object transformer:117  {
	phases "CS";
	from 104573539ABC;
	to 104573539ABC_UC_M;
	configuration transformer_configuration:72;
}

object triplex_meter:118 {
	name 104573539ABC_UC_M;
	phases "CS";
	nominal_voltage 120;
	voltage_1 -60.000+103.923j;
	voltage_2 -60.000+103.923j;
	voltage_N 0;
}

object triplex_node:119 {
	name 104573539ABC_UC_TX;
	parent 104573539ABC_UC_M;
	phases AS;
	nominal_voltage 120;
	latitude 55N14'5.227";
	longitude 118W40'31.786";
	power_1 11.2798817971787+5.75958443257743j;
	voltage_1 -60.000+103.923j;
	voltage_2 -60.000+103.923j;
	voltage_N 0;
}

object transformer:120  {
	phases "BS";
	from 104881697B;
	to 104881697B_UB_M;
	configuration transformer_configuration:61;
}

object triplex_meter:121 {
	name 104881697B_UB_M;
	phases "BS";
	nominal_voltage 120;
	voltage_1 -60.000-103.923j;
	voltage_2 -60.000-103.923j;
	voltage_N 0;
}

object triplex_node:122 {
	name 104881697B_UB_TX;
	parent 104881697B_UB_M;
	phases BS;
	nominal_voltage 120;
	latitude 55N12'9.742";
	longitude 118W45'8.501";
	power_1 9.22310203906749+4.97255215662856j;
	voltage_1 -60.000-103.923j;
	voltage_2 -60.000-103.923j;
	voltage_N 0;
}

object transformer:123  {
	phases "AS";
	from 107293287ABC;
	to 107293287ABC_UA_M;
	configuration transformer_configuration:51;
}

object triplex_meter:124 {
	name 107293287ABC_UA_M;
	phases "AS";
	nominal_voltage 120;
	voltage_1 120;
	voltage_2 120;
	voltage_N 0;
}

object triplex_node:125 {
	name 107293287ABC_UA_TX;
	parent 107293287ABC_UA_M;
	phases AS;
	nominal_voltage 120;
	latitude 55N12'18.042";
	longitude 118W46'11.531";
	power_1 11.1081724322514+5.78745742499539j;
	voltage_1 120;
	voltage_2 120;
	voltage_N 0;
}

object transformer:126  {
	phases "CS";
	from 107293287ABC;
	to 107293287ABC_UC_M;
	configuration transformer_configuration:72;
}

object triplex_meter:127 {
	name 107293287ABC_UC_M;
	phases "CS";
	nominal_voltage 120;
	voltage_1 -60.000+103.923j;
	voltage_2 -60.000+103.923j;
	voltage_N 0;
}

object triplex_node:128 {
	name 107293287ABC_UC_TX;
	parent 107293287ABC_UC_M;
	phases AS;
	nominal_voltage 120;
	latitude 55N12'18.042";
	longitude 118W46'11.531";
	power_1 0+0j;
	voltage_1 -60.000+103.923j;
	voltage_2 -60.000+103.923j;
	voltage_N 0;
}

object transformer:129  {
	phases "AS";
	from 108102155ABC;
	to 108102155ABC_UA_M;
	configuration transformer_configuration:52;
}

object triplex_meter:130 {
	name 108102155ABC_UA_M;
	phases "AS";
	nominal_voltage 120;
	voltage_1 120;
	voltage_2 120;
	voltage_N 0;
}

object triplex_node:131 {
	name 108102155ABC_UA_TX;
	parent 108102155ABC_UA_M;
	phases AS;
	nominal_voltage 120;
	latitude 55N13'44.858";
	longitude 118W41'2.060";
	power_1 6.66490345935085+3.47247445499723j;
	voltage_1 120;
	voltage_2 120;
	voltage_N 0;
}

object transformer:132  {
	phases "CS";
	from 108102155ABC;
	to 108102155ABC_UC_M;
	configuration transformer_configuration:73;
}

object triplex_meter:133 {
	name 108102155ABC_UC_M;
	phases "CS";
	nominal_voltage 120;
	voltage_1 -60.000+103.923j;
	voltage_2 -60.000+103.923j;
	voltage_N 0;
}

object triplex_node:134 {
	name 108102155ABC_UC_TX;
	parent 108102155ABC_UC_M;
	phases AS;
	nominal_voltage 120;
	latitude 55N13'44.858";
	longitude 118W41'2.060";
	power_1 0+0j;
	voltage_1 -60.000+103.923j;
	voltage_2 -60.000+103.923j;
	voltage_N 0;
}

object transformer:135  {
	phases "AS";
	from 108102287ABC;
	to 108102287ABC_UA_M;
	configuration transformer_configuration:53;
}

object triplex_meter:136 {
	name 108102287ABC_UA_M;
	phases "AS";
	nominal_voltage 120;
	voltage_1 120;
	voltage_2 120;
	voltage_N 0;
}

object triplex_node:137 {
	name 108102287ABC_UA_TX;
	parent 108102287ABC_UA_M;
	phases AS;
	nominal_voltage 120;
	latitude 55N13'48.192";
	longitude 118W40'57.125";
	power_1 22.2163448645028+11.5749148499908j;
	voltage_1 120;
	voltage_2 120;
	voltage_N 0;
}

object transformer:138  {
	phases "CS";
	from 108102287ABC;
	to 108102287ABC_UC_M;
	configuration transformer_configuration:74;
}

object triplex_meter:139 {
	name 108102287ABC_UC_M;
	phases "CS";
	nominal_voltage 120;
	voltage_1 -60.000+103.923j;
	voltage_2 -60.000+103.923j;
	voltage_N 0;
}

object triplex_node:140 {
	name 108102287ABC_UC_TX;
	parent 108102287ABC_UC_M;
	phases AS;
	nominal_voltage 120;
	latitude 55N13'48.192";
	longitude 118W40'57.125";
	power_1 4.51195271887147+2.30383377303097j;
	voltage_1 -60.000+103.923j;
	voltage_2 -60.000+103.923j;
	voltage_N 0;
}

object transformer:141  {
	phases "AS";
	from 110558817A;
	to 110558817A_UA_M;
	configuration transformer_configuration:51;
}

object triplex_meter:142 {
	name 110558817A_UA_M;
	phases "AS";
	nominal_voltage 120;
	voltage_1 120;
	voltage_2 120;
	voltage_N 0;
}

object triplex_node:143 {
	name 110558817A_UA_TX;
	parent 110558817A_UA_M;
	phases AS;
	nominal_voltage 120;
	latitude 55N11'47.069";
	longitude 118W43'47.117";
	power_1 11.1081724322514+5.78745742499539j;
	voltage_1 120;
	voltage_2 120;
	voltage_N 0;
}

object transformer:144  {
	phases "AS";
	from 110558846A;
	to 110558846A_UA_M;
	configuration transformer_configuration:54;
}

object triplex_meter:145 {
	name 110558846A_UA_M;
	phases "AS";
	nominal_voltage 120;
	voltage_1 120;
	voltage_2 120;
	voltage_N 0;
}

object triplex_node:146 {
	name 110558846A_UA_TX;
	parent 110558846A_UA_M;
	phases AS;
	nominal_voltage 120;
	latitude 55N11'50.669";
	longitude 118W43'48.497";
	power_1 4.44326897290057+2.31498296999815j;
	voltage_1 120;
	voltage_2 120;
	voltage_N 0;
}

object transformer:147  {
	phases "AS";
	from 111386968AC;
	to 111386968AC_UA_M;
	configuration transformer_configuration:53;
}

object triplex_meter:148 {
	name 111386968AC_UA_M;
	phases "AS";
	nominal_voltage 120;
	voltage_1 120;
	voltage_2 120;
	voltage_N 0;
}

object triplex_node:149 {
	name 111386968AC_UA_TX;
	parent 111386968AC_UA_M;
	phases AS;
	nominal_voltage 120;
	latitude 55N12'10.714";
	longitude 118W45'36.570";
	power_1 22.2163448645028+11.5749148499908j;
	voltage_1 120;
	voltage_2 120;
	voltage_N 0;
}

object transformer:150  {
	phases "CS";
	from 111386968AC;
	to 111386968AC_UC_M;
	configuration transformer_configuration:74;
}

object triplex_meter:151 {
	name 111386968AC_UC_M;
	phases "CS";
	nominal_voltage 120;
	voltage_1 -60.000+103.923j;
	voltage_2 -60.000+103.923j;
	voltage_N 0;
}

object triplex_node:152 {
	name 111386968AC_UC_TX;
	parent 111386968AC_UC_M;
	phases AS;
	nominal_voltage 120;
	latitude 55N12'10.714";
	longitude 118W45'36.570";
	power_1 0+0j;
	voltage_1 -60.000+103.923j;
	voltage_2 -60.000+103.923j;
	voltage_N 0;
}

object transformer:153  {
	phases "AS";
	from 111387083AC;
	to 111387083AC_UA_M;
	configuration transformer_configuration:53;
}

object triplex_meter:154 {
	name 111387083AC_UA_M;
	phases "AS";
	nominal_voltage 120;
	voltage_1 120;
	voltage_2 120;
	voltage_N 0;
}

object triplex_node:155 {
	name 111387083AC_UA_TX;
	parent 111387083AC_UA_M;
	phases AS;
	nominal_voltage 120;
	latitude 55N12'13.667";
	longitude 118W45'46.888";
	power_1 22.2163448645028+11.5749148499908j;
	voltage_1 120;
	voltage_2 120;
	voltage_N 0;
}

object transformer:156  {
	phases "CS";
	from 111387083AC;
	to 111387083AC_UC_M;
	configuration transformer_configuration:74;
}

object triplex_meter:157 {
	name 111387083AC_UC_M;
	phases "CS";
	nominal_voltage 120;
	voltage_1 -60.000+103.923j;
	voltage_2 -60.000+103.923j;
	voltage_N 0;
}

object triplex_node:158 {
	name 111387083AC_UC_TX;
	parent 111387083AC_UC_M;
	phases AS;
	nominal_voltage 120;
	latitude 55N12'13.667";
	longitude 118W45'46.888";
	power_1 0+0j;
	voltage_1 -60.000+103.923j;
	voltage_2 -60.000+103.923j;
	voltage_N 0;
}

object transformer:159  {
	phases "A|B|C|N";
	from 112823955ABC;
	to 112823955ABC_U_M;
	configuration transformer_configuration:88;
}

object meter:160 {
	name 112823955ABC_U_M;
	phases "ABCN";
	nominal_voltage 7967.434;
	voltage_A 7967.434+0.0j;
	voltage_B -3983.717-6900.000j;
	voltage_C -3983.717+6900.000j;
}
object transformer:161  {
	phases "A|B|C|N";
	from 112823956AB;
	to 112823956AB_U_M;
	configuration transformer_configuration:89;
}

object meter:162 {
	name 112823956AB_U_M;
	phases "ABCN";
	nominal_voltage 7967.434;
	voltage_A 7967.434+0.0j;
	voltage_B -3983.717-6900.000j;
	voltage_C -3983.717+6900.000j;
}
object transformer:163  {
	phases "BS";
	from 112824132ABC;
	to 112824132ABC_UB_M;
	configuration transformer_configuration:63;
}

object triplex_meter:164 {
	name 112824132ABC_UB_M;
	phases "BS";
	nominal_voltage 120;
	voltage_1 -60.000-103.923j;
	voltage_2 -60.000-103.923j;
	voltage_N 0;
}

object triplex_node:165 {
	name 112824132ABC_UB_TX;
	parent 112824132ABC_UB_M;
	phases BS;
	nominal_voltage 120;
	latitude 55N11'49.905";
	longitude 118W45'46.008";
	power_1 3.689240815627+1.98902086265142j;
	voltage_1 -60.000-103.923j;
	voltage_2 -60.000-103.923j;
	voltage_N 0;
}

object transformer:166  {
	phases "A|B|C|N";
	from 112824325ABC;
	to 112824325ABC_U_M;
	configuration transformer_configuration:91;
}

object meter:167 {
	name 112824325ABC_U_M;
	phases "ABCN";
	nominal_voltage 7967.434;
	voltage_A 7967.434+0.0j;
	voltage_B -3983.717-6900.000j;
	voltage_C -3983.717+6900.000j;
}
object transformer:168  {
	phases "BS";
	from 112966737B;
	to 112966737B_UB_M;
	configuration transformer_configuration:61;
}

object triplex_meter:169 {
	name 112966737B_UB_M;
	phases "BS";
	nominal_voltage 120;
	voltage_1 -60.000-103.923j;
	voltage_2 -60.000-103.923j;
	voltage_N 0;
}

object triplex_node:170 {
	name 112966737B_UB_TX;
	parent 112966737B_UB_M;
	phases BS;
	nominal_voltage 120;
	latitude 55N11'49.576";
	longitude 118W45'25.986";
	power_1 9.22310203906749+4.97255215662856j;
	voltage_1 -60.000-103.923j;
	voltage_2 -60.000-103.923j;
	voltage_N 0;
}

object transformer:171  {
	phases "AS";
	from 113817858AC;
	to 113817858AC_UA_M;
	configuration transformer_configuration:51;
}

object triplex_meter:172 {
	name 113817858AC_UA_M;
	phases "AS";
	nominal_voltage 120;
	voltage_1 120;
	voltage_2 120;
	voltage_N 0;
}

object triplex_node:173 {
	name 113817858AC_UA_TX;
	parent 113817858AC_UA_M;
	phases AS;
	nominal_voltage 120;
	latitude 55N12'11.990";
	longitude 118W45'56.014";
	power_1 11.1081724322514+5.78745742499539j;
	voltage_1 120;
	voltage_2 120;
	voltage_N 0;
}

object transformer:174  {
	phases "CS";
	from 113817858AC;
	to 113817858AC_UC_M;
	configuration transformer_configuration:72;
}

object triplex_meter:175 {
	name 113817858AC_UC_M;
	phases "CS";
	nominal_voltage 120;
	voltage_1 -60.000+103.923j;
	voltage_2 -60.000+103.923j;
	voltage_N 0;
}

object triplex_node:176 {
	name 113817858AC_UC_TX;
	parent 113817858AC_UC_M;
	phases AS;
	nominal_voltage 120;
	latitude 55N12'11.990";
	longitude 118W45'56.014";
	power_1 4.51195271887147+2.30383377303097j;
	voltage_1 -60.000+103.923j;
	voltage_2 -60.000+103.923j;
	voltage_N 0;
}

object transformer:177  {
	phases "AS";
	from 114083261A;
	to 114083261A_UA_M;
	configuration transformer_configuration:56;
}

object triplex_meter:178 {
	name 114083261A_UA_M;
	phases "AS";
	nominal_voltage 120;
	voltage_1 120;
	voltage_2 120;
	voltage_N 0;
}

object triplex_node:179 {
	name 114083261A_UA_TX;
	parent 114083261A_UA_M;
	phases AS;
	nominal_voltage 120;
	latitude 55N11'40.759";
	longitude 118W45'49.143";
	power_1 22.2163448645028+11.5749148499908j;
	voltage_1 120;
	voltage_2 120;
	voltage_N 0;
}

object transformer:180  {
	phases "AS";
	from 114083747A;
	to 114083747A_UA_M;
	configuration transformer_configuration:57;
}

object triplex_meter:181 {
	name 114083747A_UA_M;
	phases "AS";
	nominal_voltage 120;
	voltage_1 120;
	voltage_2 120;
	voltage_N 0;
}

object triplex_node:182 {
	name 114083747A_UA_TX;
	parent 114083747A_UA_M;
	phases AS;
	nominal_voltage 120;
	latitude 55N11'45.462";
	longitude 118W45'45.546";
	power_1 44.4326897290057+23.1498296999815j;
	voltage_1 120;
	voltage_2 120;
	voltage_N 0;
}

object transformer:183  {
	phases "AS";
	from 114083818A;
	to 114083818A_UA_M;
	configuration transformer_configuration:56;
}

object triplex_meter:184 {
	name 114083818A_UA_M;
	phases "AS";
	nominal_voltage 120;
	voltage_1 120;
	voltage_2 120;
	voltage_N 0;
}

object triplex_node:185 {
	name 114083818A_UA_TX;
	parent 114083818A_UA_M;
	phases AS;
	nominal_voltage 120;
	latitude 55N11'41.099";
	longitude 118W45'42.921";
	power_1 22.2163448645028+11.5749148499908j;
	voltage_1 120;
	voltage_2 120;
	voltage_N 0;
}

object transformer:186  {
	phases "AS";
	from 114083892A;
	to 114083892A_UA_M;
	configuration transformer_configuration:56;
}

object triplex_meter:187 {
	name 114083892A_UA_M;
	phases "AS";
	nominal_voltage 120;
	voltage_1 120;
	voltage_2 120;
	voltage_N 0;
}

object triplex_node:188 {
	name 114083892A_UA_TX;
	parent 114083892A_UA_M;
	phases AS;
	nominal_voltage 120;
	latitude 55N11'47.201";
	longitude 118W45'42.908";
	power_1 22.2163448645028+11.5749148499908j;
	voltage_1 120;
	voltage_2 120;
	voltage_N 0;
}

object transformer:189  {
	phases "BS";
	from 114084240B;
	to 114084240B_UB_M;
	configuration transformer_configuration:65;
}

object triplex_meter:190 {
	name 114084240B_UB_M;
	phases "BS";
	nominal_voltage 120;
	voltage_1 -60.000-103.923j;
	voltage_2 -60.000-103.923j;
	voltage_N 0;
}

object triplex_node:191 {
	name 114084240B_UB_TX;
	parent 114084240B_UB_M;
	phases BS;
	nominal_voltage 120;
	latitude 55N11'48.687";
	longitude 118W45'35.410";
	power_1 18.446204078135+9.94510431325712j;
	voltage_1 -60.000-103.923j;
	voltage_2 -60.000-103.923j;
	voltage_N 0;
}

object transformer:192  {
	phases "BS";
	from 114669337B;
	to 114669337B_UB_M;
	configuration transformer_configuration:66;
}

object triplex_meter:193 {
	name 114669337B_UB_M;
	phases "BS";
	nominal_voltage 120;
	voltage_1 -60.000-103.923j;
	voltage_2 -60.000-103.923j;
	voltage_N 0;
}

object triplex_node:194 {
	name 114669337B_UB_TX;
	parent 114669337B_UB_M;
	phases BS;
	nominal_voltage 120;
	latitude 55N11'51.367";
	longitude 118W46'15.228";
	power_1 36.89240815627+19.8902086265142j;
	voltage_1 -60.000-103.923j;
	voltage_2 -60.000-103.923j;
	voltage_N 0;
}

object transformer:195  {
	phases "BS";
	from 114669422B;
	to 114669422B_UB_M;
	configuration transformer_configuration:66;
}

object triplex_meter:196 {
	name 114669422B_UB_M;
	phases "BS";
	nominal_voltage 120;
	voltage_1 -60.000-103.923j;
	voltage_2 -60.000-103.923j;
	voltage_N 0;
}

object triplex_node:197 {
	name 114669422B_UB_TX;
	parent 114669422B_UB_M;
	phases BS;
	nominal_voltage 120;
	latitude 55N11'55.648";
	longitude 118W46'13.091";
	power_1 36.89240815627+19.8902086265142j;
	voltage_1 -60.000-103.923j;
	voltage_2 -60.000-103.923j;
	voltage_N 0;
}

object transformer:198  {
	phases "AS";
	from 115485455A;
	to 115485455A_UA_M;
	configuration transformer_configuration:56;
}

object triplex_meter:199 {
	name 115485455A_UA_M;
	phases "AS";
	nominal_voltage 120;
	voltage_1 120;
	voltage_2 120;
	voltage_N 0;
}

object triplex_node:200 {
	name 115485455A_UA_TX;
	parent 115485455A_UA_M;
	phases AS;
	nominal_voltage 120;
	latitude 55N11'37.478";
	longitude 118W45'51.200";
	power_1 22.2163448645028+11.5749148499908j;
	voltage_1 120;
	voltage_2 120;
	voltage_N 0;
}

object transformer:201  {
	phases "AS";
	from 115485539A;
	to 115485539A_UA_M;
	configuration transformer_configuration:56;
}

object triplex_meter:202 {
	name 115485539A_UA_M;
	phases "AS";
	nominal_voltage 120;
	voltage_1 120;
	voltage_2 120;
	voltage_N 0;
}

object triplex_node:203 {
	name 115485539A_UA_TX;
	parent 115485539A_UA_M;
	phases AS;
	nominal_voltage 120;
	latitude 55N11'37.671";
	longitude 118W45'44.853";
	power_1 22.2163448645028+11.5749148499908j;
	voltage_1 120;
	voltage_2 120;
	voltage_N 0;
}

object transformer:204  {
	phases "AS";
	from 115487170A;
	to 115487170A_UA_M;
	configuration transformer_configuration:58;
}

object triplex_meter:205 {
	name 115487170A_UA_M;
	phases "AS";
	nominal_voltage 120;
	voltage_1 120;
	voltage_2 120;
	voltage_N 0;
}

object triplex_node:206 {
	name 115487170A_UA_TX;
	parent 115487170A_UA_M;
	phases AS;
	nominal_voltage 120;
	latitude 55N11'40.759";
	longitude 118W45'50.243";
	power_1 33.3245172967542+17.3623722749862j;
	voltage_1 120;
	voltage_2 120;
	voltage_N 0;
}

object transformer:207  {
	phases "AS";
	from 116195801AC;
	to 116195801AC_UA_M;
	configuration transformer_configuration:51;
}

object triplex_meter:208 {
	name 116195801AC_UA_M;
	phases "AS";
	nominal_voltage 120;
	voltage_1 120;
	voltage_2 120;
	voltage_N 0;
}

object triplex_node:209 {
	name 116195801AC_UA_TX;
	parent 116195801AC_UA_M;
	phases AS;
	nominal_voltage 120;
	latitude 55N12'30.087";
	longitude 118W43'35.996";
	power_1 11.1081724322514+5.78745742499539j;
	voltage_1 120;
	voltage_2 120;
	voltage_N 0;
}

object transformer:210  {
	phases "CS";
	from 116195801AC;
	to 116195801AC_UC_M;
	configuration transformer_configuration:72;
}

object triplex_meter:211 {
	name 116195801AC_UC_M;
	phases "CS";
	nominal_voltage 120;
	voltage_1 -60.000+103.923j;
	voltage_2 -60.000+103.923j;
	voltage_N 0;
}

object triplex_node:212 {
	name 116195801AC_UC_TX;
	parent 116195801AC_UC_M;
	phases AS;
	nominal_voltage 120;
	latitude 55N12'30.087";
	longitude 118W43'35.996";
	power_1 0+0j;
	voltage_1 -60.000+103.923j;
	voltage_2 -60.000+103.923j;
	voltage_N 0;
}

object transformer:213  {
	phases "BS";
	from 116278008B;
	to 116278008B_UB_M;
	configuration transformer_configuration:64;
}

object triplex_meter:214 {
	name 116278008B_UB_M;
	phases "BS";
	nominal_voltage 120;
	voltage_1 -60.000-103.923j;
	voltage_2 -60.000-103.923j;
	voltage_N 0;
}

object triplex_node:215 {
	name 116278008B_UB_TX;
	parent 116278008B_UB_M;
	phases BS;
	nominal_voltage 120;
	latitude 55N11'33.166";
	longitude 118W45'8.750";
	power_1 18.446204078135+9.94510431325712j;
	voltage_1 -60.000-103.923j;
	voltage_2 -60.000-103.923j;
	voltage_N 0;
}

object transformer:216  {
	phases "BS";
	from 116407320B;
	to 116407320B_UB_M;
	configuration transformer_configuration:61;
}

object triplex_meter:217 {
	name 116407320B_UB_M;
	phases "BS";
	nominal_voltage 120;
	voltage_1 -60.000-103.923j;
	voltage_2 -60.000-103.923j;
	voltage_N 0;
}

object triplex_node:218 {
	name 116407320B_UB_TX;
	parent 116407320B_UB_M;
	phases BS;
	nominal_voltage 120;
	latitude 55N11'38.023";
	longitude 118W44'22.533";
	power_1 9.22310203906749+4.97255215662856j;
	voltage_1 -60.000-103.923j;
	voltage_2 -60.000-103.923j;
	voltage_N 0;
}

object transformer:219  {
	phases "BS";
	from 116407332B;
	to 116407332B_UB_M;
	configuration transformer_configuration:63;
}

object triplex_meter:220 {
	name 116407332B_UB_M;
	phases "BS";
	nominal_voltage 120;
	voltage_1 -60.000-103.923j;
	voltage_2 -60.000-103.923j;
	voltage_N 0;
}

object triplex_node:221 {
	name 116407332B_UB_TX;
	parent 116407332B_UB_M;
	phases BS;
	nominal_voltage 120;
	latitude 55N11'35.993";
	longitude 118W44'24.513";
	power_1 3.689240815627+1.98902086265142j;
	voltage_1 -60.000-103.923j;
	voltage_2 -60.000-103.923j;
	voltage_N 0;
}

object transformer:222  {
	phases "BS";
	from 116407354B;
	to 116407354B_UB_M;
	configuration transformer_configuration:63;
}

object triplex_meter:223 {
	name 116407354B_UB_M;
	phases "BS";
	nominal_voltage 120;
	voltage_1 -60.000-103.923j;
	voltage_2 -60.000-103.923j;
	voltage_N 0;
}

object triplex_node:224 {
	name 116407354B_UB_TX;
	parent 116407354B_UB_M;
	phases BS;
	nominal_voltage 120;
	latitude 55N11'38.748";
	longitude 118W44'15.211";
	power_1 3.689240815627+1.98902086265142j;
	voltage_1 -60.000-103.923j;
	voltage_2 -60.000-103.923j;
	voltage_N 0;
}

object transformer:225  {
	phases "BS";
	from 116407366B;
	to 116407366B_UB_M;
	configuration transformer_configuration:63;
}

object triplex_meter:226 {
	name 116407366B_UB_M;
	phases "BS";
	nominal_voltage 120;
	voltage_1 -60.000-103.923j;
	voltage_2 -60.000-103.923j;
	voltage_N 0;
}

object triplex_node:227 {
	name 116407366B_UB_TX;
	parent 116407366B_UB_M;
	phases BS;
	nominal_voltage 120;
	latitude 55N11'36.880";
	longitude 118W44'17.862";
	power_1 3.689240815627+1.98902086265142j;
	voltage_1 -60.000-103.923j;
	voltage_2 -60.000-103.923j;
	voltage_N 0;
}

object transformer:228  {
	phases "BS";
	from 116407398B;
	to 116407398B_UB_M;
	configuration transformer_configuration:61;
}

object triplex_meter:229 {
	name 116407398B_UB_M;
	phases "BS";
	nominal_voltage 120;
	voltage_1 -60.000-103.923j;
	voltage_2 -60.000-103.923j;
	voltage_N 0;
}

object triplex_node:230 {
	name 116407398B_UB_TX;
	parent 116407398B_UB_M;
	phases BS;
	nominal_voltage 120;
	latitude 55N11'33.441";
	longitude 118W44'27.142";
	power_1 9.22310203906749+4.97255215662856j;
	voltage_1 -60.000-103.923j;
	voltage_2 -60.000-103.923j;
	voltage_N 0;
}

object transformer:231  {
	phases "BS";
	from 116407420B;
	to 116407420B_UB_M;
	configuration transformer_configuration:61;
}

object triplex_meter:232 {
	name 116407420B_UB_M;
	phases "BS";
	nominal_voltage 120;
	voltage_1 -60.000-103.923j;
	voltage_2 -60.000-103.923j;
	voltage_N 0;
}

object triplex_node:233 {
	name 116407420B_UB_TX;
	parent 116407420B_UB_M;
	phases BS;
	nominal_voltage 120;
	latitude 55N11'31.924";
	longitude 118W44'14.198";
	power_1 9.22310203906749+4.97255215662856j;
	voltage_1 -60.000-103.923j;
	voltage_2 -60.000-103.923j;
	voltage_N 0;
}

object transformer:234  {
	phases "BS";
	from 116407442B;
	to 116407442B_UB_M;
	configuration transformer_configuration:61;
}

object triplex_meter:235 {
	name 116407442B_UB_M;
	phases "BS";
	nominal_voltage 120;
	voltage_1 -60.000-103.923j;
	voltage_2 -60.000-103.923j;
	voltage_N 0;
}

object triplex_node:236 {
	name 116407442B_UB_TX;
	parent 116407442B_UB_M;
	phases BS;
	nominal_voltage 120;
	latitude 55N11'30.567";
	longitude 118W44'20.685";
	power_1 9.22310203906749+4.97255215662856j;
	voltage_1 -60.000-103.923j;
	voltage_2 -60.000-103.923j;
	voltage_N 0;
}

object transformer:237  {
	phases "BS";
	from 116407474B;
	to 116407474B_UB_M;
	configuration transformer_configuration:63;
}

object triplex_meter:238 {
	name 116407474B_UB_M;
	phases "BS";
	nominal_voltage 120;
	voltage_1 -60.000-103.923j;
	voltage_2 -60.000-103.923j;
	voltage_N 0;
}

object triplex_node:239 {
	name 116407474B_UB_TX;
	parent 116407474B_UB_M;
	phases BS;
	nominal_voltage 120;
	latitude 55N11'23.120";
	longitude 118W44'30.876";
	power_1 3.689240815627+1.98902086265142j;
	voltage_1 -60.000-103.923j;
	voltage_2 -60.000-103.923j;
	voltage_N 0;
}

object transformer:240  {
	phases "BS";
	from 116407576B;
	to 116407576B_UB_M;
	configuration transformer_configuration:61;
}

object triplex_meter:241 {
	name 116407576B_UB_M;
	phases "BS";
	nominal_voltage 120;
	voltage_1 -60.000-103.923j;
	voltage_2 -60.000-103.923j;
	voltage_N 0;
}

object triplex_node:242 {
	name 116407576B_UB_TX;
	parent 116407576B_UB_M;
	phases BS;
	nominal_voltage 120;
	latitude 55N11'25.521";
	longitude 118W44'24.656";
	power_1 9.22310203906749+4.97255215662856j;
	voltage_1 -60.000-103.923j;
	voltage_2 -60.000-103.923j;
	voltage_N 0;
}

object transformer:243  {
	phases "BS";
	from 116407617B;
	to 116407617B_UB_M;
	configuration transformer_configuration:61;
}

object triplex_meter:244 {
	name 116407617B_UB_M;
	phases "BS";
	nominal_voltage 120;
	voltage_1 -60.000-103.923j;
	voltage_2 -60.000-103.923j;
	voltage_N 0;
}

object triplex_node:245 {
	name 116407617B_UB_TX;
	parent 116407617B_UB_M;
	phases BS;
	nominal_voltage 120;
	latitude 55N11'29.228";
	longitude 118W44'21.806";
	power_1 9.22310203906749+4.97255215662856j;
	voltage_1 -60.000-103.923j;
	voltage_2 -60.000-103.923j;
	voltage_N 0;
}

object transformer:246  {
	phases "BS";
	from 116407755B;
	to 116407755B_UB_M;
	configuration transformer_configuration:64;
}

object triplex_meter:247 {
	name 116407755B_UB_M;
	phases "BS";
	nominal_voltage 120;
	voltage_1 -60.000-103.923j;
	voltage_2 -60.000-103.923j;
	voltage_N 0;
}

object triplex_node:248 {
	name 116407755B_UB_TX;
	parent 116407755B_UB_M;
	phases BS;
	nominal_voltage 120;
	latitude 55N11'25.306";
	longitude 118W44'17.376";
	power_1 18.446204078135+9.94510431325712j;
	voltage_1 -60.000-103.923j;
	voltage_2 -60.000-103.923j;
	voltage_N 0;
}

object transformer:249  {
	phases "BS";
	from 116408128B;
	to 116408128B_UB_M;
	configuration transformer_configuration:61;
}

object triplex_meter:250 {
	name 116408128B_UB_M;
	phases "BS";
	nominal_voltage 120;
	voltage_1 -60.000-103.923j;
	voltage_2 -60.000-103.923j;
	voltage_N 0;
}

object triplex_node:251 {
	name 116408128B_UB_TX;
	parent 116408128B_UB_M;
	phases BS;
	nominal_voltage 120;
	latitude 55N11'41.987";
	longitude 118W44'21.769";
	power_1 9.22310203906749+4.97255215662856j;
	voltage_1 -60.000-103.923j;
	voltage_2 -60.000-103.923j;
	voltage_N 0;
}

object transformer:252  {
	phases "BS";
	from 116408149B;
	to 116408149B_UB_M;
	configuration transformer_configuration:61;
}

object triplex_meter:253 {
	name 116408149B_UB_M;
	phases "BS";
	nominal_voltage 120;
	voltage_1 -60.000-103.923j;
	voltage_2 -60.000-103.923j;
	voltage_N 0;
}

object triplex_node:254 {
	name 116408149B_UB_TX;
	parent 116408149B_UB_M;
	phases BS;
	nominal_voltage 120;
	latitude 55N11'40.237";
	longitude 118W44'29.452";
	power_1 9.22310203906749+4.97255215662856j;
	voltage_1 -60.000-103.923j;
	voltage_2 -60.000-103.923j;
	voltage_N 0;
}

object transformer:255  {
	phases "BS";
	from 117385106B;
	to 117385106B_UB_M;
	configuration transformer_configuration:67;
}

object triplex_meter:256 {
	name 117385106B_UB_M;
	phases "BS";
	nominal_voltage 120;
	voltage_1 -60.000-103.923j;
	voltage_2 -60.000-103.923j;
	voltage_N 0;
}

object triplex_node:257 {
	name 117385106B_UB_TX;
	parent 117385106B_UB_M;
	phases BS;
	nominal_voltage 120;
	latitude 55N11'34.380";
	longitude 118W44'41.268";
	power_1 5.5338612234405+2.98353129397713j;
	voltage_1 -60.000-103.923j;
	voltage_2 -60.000-103.923j;
	voltage_N 0;
}

object transformer:258  {
	phases "BS";
	from 117385406B;
	to 117385406B_UB_M;
	configuration transformer_configuration:65;
}

object triplex_meter:259 {
	name 117385406B_UB_M;
	phases "BS";
	nominal_voltage 120;
	voltage_1 -60.000-103.923j;
	voltage_2 -60.000-103.923j;
	voltage_N 0;
}

object triplex_node:260 {
	name 117385406B_UB_TX;
	parent 117385406B_UB_M;
	phases BS;
	nominal_voltage 120;
	latitude 55N11'37.269";
	longitude 118W44'52.130";
	power_1 18.446204078135+9.94510431325712j;
	voltage_1 -60.000-103.923j;
	voltage_2 -60.000-103.923j;
	voltage_N 0;
}

object transformer:261  {
	phases "BS";
	from 117385510B;
	to 117385510B_UB_M;