//*********************************************
// $Id: R4-12.47-2.glm 1132 2008-11-18 22:36:10Z dchassin $ 
//*********************************************

clock { 
	 timezone EST+5EDT;
	 timestamp '2000-01-01 0:00:00';
}

//*********************************************
// modules
module powerflow;


object triplex_line_conductor: {
	name 1/0 AA triplex;
	resistance 0.97;
	geometric_mean_radius 0.0111;
}

object triplex_line_configuration:1 {
	conductor_1 1/0 AA triplex;
	conductor_2 1/0 AA triplex;
	conductor_N 1/0 AA triplex;
	insulation_thickness 0.08;
	diameter 0.368;
}

object transformer:94  {
	phases "A|N";
	from 67_3488;
	to 67_3488_CA_TX1;
	configuration transformer_configuration:51;
}

object triplex_node:95 {
	name 67_3488_CA_TX1;
	phases "A|N";
}

object meter:96 {
	name 67_3488_CA_TX1_M;
	phases "AN";
	voltage_A 120;
}

object triplex_line:97 {
	name 67_3488_CA_TXL;
	from 67_3488_CA_TX1;
	to 67_3488_CA_TX1_M;
	length 30;
	configuration triplex_line_configuration:1;
}

object triplex_node:98 {
	name 67_3488_CA_TX2;
	parent 67_3488_CA_TX1_M;
	latitude 49N58'56.048";
	longitude 119W0'2.679";
	power_1 0+0j;
	voltage_1 120;
	voltage_2 120;
	voltage_N 0;
}

object transformer:99  {
	phases "A|N";
	from 67_3493;
	to 67_3493_RA_TX1;
	configuration transformer_configuration:52;
}

object triplex_node:100 {
	name 67_3493_RA_TX1;
	phases "AS";
	voltage_1 120;
	voltage_2 120;
	voltage_N 0;
}

object triplex_meter:101 {
	name 67_3493_RA_TX1_M;
	phases "AS";
	voltage_1 120;
	voltage_2 120;
	voltage_N 0;
}

object triplex_line:102 {
	name 67_3493_RA_TXL;
	from 67_3493_RA_TX1;
	to 67_3493_RA_TX1_M;
	length 30;
	configuration triplex_line_configuration:1;
}

object triplex_node:103 {
	name 67_3493_RA_TX2;
	parent 67_3493_RA_TX1_M;
	latitude 49N59'0.093";
	longitude 119W0'0.948";
	power_1 9+1.8279j;
	voltage_1 120;
	voltage_2 120;
	voltage_N 0;
}

object transformer:104  {
	phases "B|N";
	from 67_3493;
	to 67_3493_RB_TX1;
	configuration transformer_configuration:61;
}

object triplex_node:105 {
	name 67_3493_RB_TX1;
	phases "BS";
	voltage_1 -60.000-103.923j;
	voltage_2 -60.000-103.923j;
	voltage_N 0;
}

object triplex_meter:106 {
	name 67_3493_RB_TX1_M;
	phases "BS";
	voltage_1 -60.000-103.923j;
	voltage_2 -60.000-103.923j;
	voltage_N 0;
}

object triplex_line:107 {
	name 67_3493_RB_TXL;
	from 67_3493_RB_TX1;
	to 67_3493_RB_TX1_M;
	length 30;
	configuration triplex_line_configuration:1;
}

object triplex_node:108 {
	name 67_3493_RB_TX2;
	parent 67_3493_RB_TX1_M;
	latitude 49N59'0.093";
	longitude 119W0'0.948";
	power_1 9+1.8279j;
	voltage_1 -60.000-103.923j;
	voltage_2 -60.000-103.923j;
	voltage_N 0;
}

object transformer:109  {
	phases "A|B|C|N";
	from 67_3489;
	to 67_3489_C_M;
	configuration transformer_configuration:82;
}

object meter:110 {
	name 67_3489_C_M;
	phases "ABCN";
	nominal_voltage 7216.878;
	voltage_A 7216.878+0.0j;
	voltage_B -3608.439-6250.000j;
	voltage_C -3608.439+6250.000j;
}
object transformer:111  {
	phases "A|N";
	from 67_3476;
	to 67_3476_RA_TX1;
	configuration transformer_configuration:54;
}

object triplex_node:112 {
	name 67_3476_RA_TX1;
	phases "AS";
	voltage_1 120;
	voltage_2 120;
	voltage_N 0;
}

object triplex_meter:113 {
	name 67_3476_RA_TX1_M;
	phases "AS";
	voltage_1 120;
	voltage_2 120;
	voltage_N 0;
}

object triplex_line:114 {
	name 67_3476_RA_TXL;
	from 67_3476_RA_TX1;
	to 67_3476_RA_TX1_M;
	length 30;
	configuration triplex_line_configuration:1;
}

object triplex_node:115 {
	name 67_3476_RA_TX2;
	parent 67_3476_RA_TX1_M;
	latitude 49N58'52.914";
	longitude 119W0'25.867";
	power_1 6+1.2186j;
	voltage_1 120;
	voltage_2 120;
	voltage_N 0;
}

object transformer:116  {
	phases "A|N";
	from 67_3475;
	to 67_3475_RA_TX1;
	configuration transformer_configuration:54;
}

object triplex_node:117 {
	name 67_3475_RA_TX1;
	phases "AS";
	voltage_1 120;
	voltage_2 120;
	voltage_N 0;
}

object triplex_meter:118 {
	name 67_3475_RA_TX1_M;
	phases "AS";
	voltage_1 120;
	voltage_2 120;
	voltage_N 0;
}

object triplex_line:119 {
	name 67_3475_RA_TXL;
	from 67_3475_RA_TX1;
	to 67_3475_RA_TX1_M;
	length 30;
	configuration triplex_line_configuration:1;
}

object triplex_node:120 {
	name 67_3475_RA_TX2;
	parent 67_3475_RA_TX1_M;
	latitude 49N58'54.010";
	longitude 119W0'24.258";
	power_1 8+1.6248j;
	voltage_1 120;
	voltage_2 120;
	voltage_N 0;
}

object transformer:121  {
	phases "B|N";
	from 67_119135;
	to 67_119135_CB_TX1;
	configuration transformer_configuration:63;
}

object triplex_node:122 {
	name 67_119135_CB_TX1;
	phases "B|N";
}

object meter:123 {
	name 67_119135_CB_TX1_M;
	phases "BN";
	voltage_B -60.000-103.923j;
}

object triplex_line:124 {
	name 67_119135_CB_TXL;
	from 67_119135_CB_TX1;
	to 67_119135_CB_TX1_M;
	length 30;
	configuration triplex_line_configuration:1;
}

object triplex_node:125 {
	name 67_119135_CB_TX2;
	parent 67_119135_CB_TX1_M;
	latitude 49N59'2.315";
	longitude 119W0'38.146";
	power_1 0+0j;
	voltage_1 -60.000-103.923j;
	voltage_2 -60.000-103.923j;
	voltage_N 0;
}

object transformer:126  {
	phases "B|N";
	from 67_3495;
	to 67_3495_CB_TX1;
	configuration transformer_configuration:63;
}

object triplex_node:127 {
	name 67_3495_CB_TX1;
	phases "B|N";
}

object meter:128 {
	name 67_3495_CB_TX1_M;
	phases "BN";
	voltage_B -60.000-103.923j;
}

object triplex_line:129 {
	name 67_3495_CB_TXL;
	from 67_3495_CB_TX1;
	to 67_3495_CB_TX1_M;
	length 30;
	configuration triplex_line_configuration:1;
}

object triplex_node:130 {
	name 67_3495_CB_TX2;
	parent 67_3495_CB_TX1_M;
	latitude 49N58'56.326";
	longitude 119W0'37.089";
	power_1 0+0j;
	voltage_1 -60.000-103.923j;
	voltage_2 -60.000-103.923j;
	voltage_N 0;
}

object transformer:131  {
	phases "B|N";
	from 67_3479;
	to 67_3479_CB_TX1;
	configuration transformer_configuration:62;
}

object triplex_node:132 {
	name 67_3479_CB_TX1;
	phases "B|N";
}

object meter:133 {
	name 67_3479_CB_TX1_M;
	phases "BN";
	voltage_B -60.000-103.923j;
}

object triplex_line:134 {
	name 67_3479_CB_TXL;
	from 67_3479_CB_TX1;
	to 67_3479_CB_TX1_M;
	length 30;
	configuration triplex_line_configuration:1;
}

object triplex_node:135 {
	name 67_3479_CB_TX2;
	parent 67_3479_CB_TX1_M;
	latitude 49N58'58.777";
	longitude 119W0'37.543";
	power_1 2+0.4062j;
	voltage_1 -60.000-103.923j;
	voltage_2 -60.000-103.923j;
	voltage_N 0;
}

object transformer:136  {
	phases "B|N";
	from 67_3480;
	to 67_3480_CB_TX1;
	configuration transformer_configuration:63;
}

object triplex_node:137 {
	name 67_3480_CB_TX1;
	phases "B|N";
}

object meter:138 {
	name 67_3480_CB_TX1_M;
	phases "BN";
	voltage_B -60.000-103.923j;
}

object triplex_line:139 {
	name 67_3480_CB_TXL;
	from 67_3480_CB_TX1;
	to 67_3480_CB_TX1_M;
	length 30;
	configuration triplex_line_configuration:1;
}

object triplex_node:140 {
	name 67_3480_CB_TX2;
	parent 67_3480_CB_TX1_M;
	latitude 49N58'58.854";
	longitude 119W0'34.401";
	power_1 4+0.8124j;
	voltage_1 -60.000-103.923j;
	voltage_2 -60.000-103.923j;
	voltage_N 0;
}

object transformer:141  {
	phases "B|N";
	from 67_25182;
	to 67_25182_RB_TX1;
	configuration transformer_configuration:63;
}

object triplex_node:142 {
	name 67_25182_RB_TX1;
	phases "BS";
	voltage_1 -60.000-103.923j;
	voltage_2 -60.000-103.923j;
	voltage_N 0;
}

object triplex_meter:143 {
	name 67_25182_RB_TX1_M;
	phases "BS";
	voltage_1 -60.000-103.923j;
	voltage_2 -60.000-103.923j;
	voltage_N 0;
}

object triplex_line:144 {
	name 67_25182_RB_TXL;
	from 67_25182_RB_TX1;
	to 67_25182_RB_TX1_M;
	length 30;
	configuration triplex_line_configuration:1;
}

object triplex_node:145 {
	name 67_25182_RB_TX2;
	parent 67_25182_RB_TX1_M;
	latitude 49N58'53.629";
	longitude 119W0'39.346";
	power_1 1+0.2031j;
	voltage_1 -60.000-103.923j;
	voltage_2 -60.000-103.923j;
	voltage_N 0;
}

object transformer:146  {
	phases "B|N";
	from 67_3478;
	to 67_3478_CB_TX1;
	configuration transformer_configuration:64;
}

object triplex_node:147 {
	name 67_3478_CB_TX1;
	phases "B|N";
}

object meter:148 {
	name 67_3478_CB_TX1_M;
	phases "BN";
	voltage_B -60.000-103.923j;
}

object triplex_line:149 {
	name 67_3478_CB_TXL;
	from 67_3478_CB_TX1;
	to 67_3478_CB_TX1_M;
	length 30;
	configuration triplex_line_configuration:1;
}

object triplex_node:150 {
	name 67_3478_CB_TX2;
	parent 67_3478_CB_TX1_M;
	latitude 49N58'55.819";
	longitude 119W0'40.136";
	power_1 4+0.8124j;
	voltage_1 -60.000-103.923j;
	voltage_2 -60.000-103.923j;
	voltage_N 0;
}

object transformer:151  {
	phases "A|N";
	from 67_3483;
	to 67_3483_RA_TX1;
	configuration transformer_configuration:53;
}

object triplex_node:152 {
	name 67_3483_RA_TX1;
	phases "AS";
	voltage_1 120;
	voltage_2 120;
	voltage_N 0;
}

object triplex_meter:153 {
	name 67_3483_RA_TX1_M;
	phases "AS";
	voltage_1 120;
	voltage_2 120;
	voltage_N 0;
}

object triplex_line:154 {
	name 67_3483_RA_TXL;
	from 67_3483_RA_TX1;
	to 67_3483_RA_TX1_M;
	length 30;
	configuration triplex_line_configuration:1;
}

object triplex_node:155 {
	name 67_3483_RA_TX2;
	parent 67_3483_RA_TX1_M;
	latitude 49N58'59.562";
	longitude 119W0'18.481";
	power_1 7.33333333333333+1.4894j;
	voltage_1 120;
	voltage_2 120;
	voltage_N 0;
}

object transformer:156  {
	phases "B|N";
	from 67_3483;
	to 67_3483_RB_TX1;
	configuration transformer_configuration:62;
}

object triplex_node:157 {
	name 67_3483_RB_TX1;
	phases "BS";
	voltage_1 -60.000-103.923j;
	voltage_2 -60.000-103.923j;
	voltage_N 0;
}

object triplex_meter:158 {
	name 67_3483_RB_TX1_M;
	phases "BS";
	voltage_1 -60.000-103.923j;
	voltage_2 -60.000-103.923j;
	voltage_N 0;
}

object triplex_line:159 {
	name 67_3483_RB_TXL;
	from 67_3483_RB_TX1;
	to 67_3483_RB_TX1_M;
	length 30;
	configuration triplex_line_configuration:1;
}

object triplex_node:160 {
	name 67_3483_RB_TX2;
	parent 67_3483_RB_TX1_M;
	latitude 49N58'59.562";
	longitude 119W0'18.481";
	power_1 7.33333333333333+1.4894j;
	voltage_1 -60.000-103.923j;
	voltage_2 -60.000-103.923j;
	voltage_N 0;
}

object transformer:161  {
	phases "C|N";
	from 67_3483;
	to 67_3483_RC_TX1;
	configuration transformer_configuration:73;
}

object triplex_node:162 {
	name 67_3483_RC_TX1;
	phases "C|N";
}

object triplex_meter:163 {
	name 67_3483_RC_TX1_M;
	phases "CS";
	voltage_1 -60.000+103.923j;
	voltage_2 -60.000+103.923j;
	voltage_N 0;
}

object triplex_line:164 {
	name 67_3483_RC_TXL;
	from 67_3483_RC_TX1;
	to 67_3483_RC_TX1_M;
	length 30;
	configuration triplex_line_configuration:1;
}

object triplex_node:165 {
	name 67_3483_RC_TX2;
	parent 67_3483_RC_TX1_M;
	latitude 49N58'59.562";
	longitude 119W0'18.481";
	power_1 7.33333333333333+1.4894j;
	voltage_1 -60.000+103.923j;
	voltage_2 -60.000+103.923j;
	voltage_N 0;
}

object transformer:166  {
	phases "A|N";
	from 67_3544;
	to 67_3544_RA_TX1;
	configuration transformer_configuration:54;
}

object triplex_node:167 {
	name 67_3544_RA_TX1;
	phases "AS";
	voltage_1 120;
	voltage_2 120;
	voltage_N 0;
}

object triplex_meter:168 {
	name 67_3544_RA_TX1_M;
	phases "AS";
	voltage_1 120;
	voltage_2 120;
	voltage_N 0;
}

object triplex_line:169 {
	name 67_3544_RA_TXL;
	from 67_3544_RA_TX1;
	to 67_3544_RA_TX1_M;
	length 30;
	configuration triplex_line_configuration:1;
}

object triplex_node:170 {
	name 67_3544_RA_TX2;
	parent 67_3544_RA_TX1_M;
	latitude 49N58'59.496";
	longitude 118W59'49.309";
	power_1 0+0j;
	voltage_1 120;
	voltage_2 120;
	voltage_N 0;
}

object transformer:171  {
	phases "C|N";
	from 67_3544;
	to 67_3544_RC_TX1;
	configuration transformer_configuration:74;
}

object triplex_node:172 {
	name 67_3544_RC_TX1;
	phases "C|N";
}

object triplex_meter:173 {
	name 67_3544_RC_TX1_M;
	phases "CS";
	voltage_1 -60.000+103.923j;
	voltage_2 -60.000+103.923j;
	voltage_N 0;
}

object triplex_line:174 {
	name 67_3544_RC_TXL;
	from 67_3544_RC_TX1;
	to 67_3544_RC_TX1_M;
	length 30;
	configuration triplex_line_configuration:1;
}

object triplex_node:175 {
	name 67_3544_RC_TX2;
	parent 67_3544_RC_TX1_M;
	latitude 49N58'59.496";
	longitude 118W59'49.309";
	power_1 0+0j;
	voltage_1 -60.000+103.923j;
	voltage_2 -60.000+103.923j;
	voltage_N 0;
}

object transformer:176  {
	phases "A|N";
	from 67_21487;
	to 67_21487_RA_TX1;
	configuration transformer_configuration:55;
}

object triplex_node:177 {
	name 67_21487_RA_TX1;
	phases "AS";
	voltage_1 120;
	voltage_2 120;
	voltage_N 0;
}

object triplex_meter:178 {
	name 67_21487_RA_TX1_M;
	phases "AS";
	voltage_1 120;
	voltage_2 120;
	voltage_N 0;
}

object triplex_line:179 {
	name 67_21487_RA_TXL;
	from 67_21487_RA_TX1;
	to 67_21487_RA_TX1_M;
	length 30;
	configuration triplex_line_configuration:1;
}

object triplex_node:180 {
	name 67_21487_RA_TX2;
	parent 67_21487_RA_TX1_M;
	latitude 49N58'49.091";
	longitude 119W0'13.775";
	power_1 18+3.6558j;
	voltage_1 120;
	voltage_2 120;
	voltage_N 0;
}

object transformer:181  {
	phases "A|N";
	from 67_21485;
	to 67_21485_RA_TX1;
	configuration transformer_configuration:56;
}

object triplex_node:182 {
	name 67_21485_RA_TX1;
	phases "AS";
	voltage_1 120;
	voltage_2 120;
	voltage_N 0;
}

object triplex_meter:183 {
	name 67_21485_RA_TX1_M;
	phases "AS";
	voltage_1 120;
	voltage_2 120;
	voltage_N 0;
}

object triplex_line:184 {
	name 67_21485_RA_TXL;
	from 67_21485_RA_TX1;
	to 67_21485_RA_TX1_M;
	length 30;
	configuration triplex_line_configuration:1;
}

object triplex_node:185 {
	name 67_21485_RA_TX2;
	parent 67_21485_RA_TX1_M;
	latitude 49N58'52.271";
	longitude 119W0'17.256";
	power_1 29+5.8899j;
	voltage_1 120;
	voltage_2 120;
	voltage_N 0;
}

object transformer:186  {
	phases "A|N";
	from 67_21483;
	to 67_21483_RA_TX1;
	configuration transformer_configuration:57;
}

object triplex_node:187 {
	name 67_21483_RA_TX1;
	phases "AS";
	voltage_1 120;
	voltage_2 120;
	voltage_N 0;
}

object triplex_meter:188 {
	name 67_21483_RA_TX1_M;
	phases "AS";
	voltage_1 120;
	voltage_2 120;
	voltage_N 0;
}

object triplex_line:189 {
	name 67_21483_RA_TXL;
	from 67_21483_RA_TX1;
	to 67_21483_RA_TX1_M;
	length 30;
	configuration triplex_line_configuration:1;
}

object triplex_node:190 {
	name 67_21483_RA_TX2;
	parent 67_21483_RA_TX1_M;
	latitude 49N58'49.749";
	longitude 119W0'20.749";
	power_1 17+3.4527j;
	voltage_1 120;
	voltage_2 120;
	voltage_N 0;
}

object transformer:191  {
	phases "A|N";
	from 67_21484;
	to 67_21484_RA_TX1;
	configuration transformer_configuration:55;
}

object triplex_node:192 {
	name 67_21484_RA_TX1;
	phases "AS";
	voltage_1 120;
	voltage_2 120;
	voltage_N 0;
}

object triplex_meter:193 {
	name 67_21484_RA_TX1_M;
	phases "AS";
	voltage_1 120;
	voltage_2 120;
	voltage_N 0;
}

object triplex_line:194 {
	name 67_21484_RA_TXL;
	from 67_21484_RA_TX1;
	to 67_21484_RA_TX1_M;
	length 30;
	configuration triplex_line_configuration:1;
}

object triplex_node:195 {
	name 67_21484_RA_TX2;
	parent 67_21484_RA_TX1_M;
	latitude 49N58'49.937";
	longitude 119W0'18.334";
	power_1 13+2.6403j;
	voltage_1 120;
	voltage_2 120;
	voltage_N 0;
}

object transformer:196  {
	phases "B|N";
	from 67_21497;
	to 67_21497_RB_TX1;
	configuration transformer_configuration:65;
}

object triplex_node:197 {
	name 67_21497_RB_TX1;
	phases "BS";
	voltage_1 -60.000-103.923j;
	voltage_2 -60.000-103.923j;
	voltage_N 0;
}

object triplex_meter:198 {
	name 67_21497_RB_TX1_M;
	phases "BS";
	voltage_1 -60.000-103.923j;
	voltage_2 -60.000-103.923j;
	voltage_N 0;
}

object triplex_line:199 {
	name 67_21497_RB_TXL;
	from 67_21497_RB_TX1;
	to 67_21497_RB_TX1_M;
	length 30;
	configuration triplex_line_configuration:1;
}

object triplex_node:200 {
	name 67_21497_RB_TX2;
	parent 67_21497_RB_TX1_M;
	latitude 49N58'55.503";
	longitude 119W0'7.416";
	power_1 15+3.0465j;
	voltage_1 -60.000-103.923j;
	voltage_2 -60.000-103.923j;
	voltage_N 0;
}

object transformer:201  {
	phases "B|N";
	from 67_21496;
	to 67_21496_RB_TX1;
	configuration transformer_configuration:65;
}

object triplex_node:202 {
	name 67_21496_RB_TX1;
	phases "BS";
	voltage_1 -60.000-103.923j;
	voltage_2 -60.000-103.923j;
	voltage_N 0;
}

object triplex_meter:203 {
	name 67_21496_RB_TX1_M;
	phases "BS";
	voltage_1 -60.000-103.923j;
	voltage_2 -60.000-103.923j;
	voltage_N 0;
}

object triplex_line:204 {
	name 67_21496_RB_TXL;
	from 67_21496_RB_TX1;
	to 67_21496_RB_TX1_M;
	length 30;
	configuration triplex_line_configuration:1;
}

object triplex_node:205 {
	name 67_21496_RB_TX2;
	parent 67_21496_RB_TX1_M;
	latitude 49N58'53.668";
	longitude 119W0'6.834";
	power_1 11+2.2341j;
	voltage_1 -60.000-103.923j;
	voltage_2 -60.000-103.923j;
	voltage_N 0;
}

object transformer:206  {
	phases "B|N";
	from 67_21495;
	to 67_21495_RB_TX1;
	configuration transformer_configuration:65;
}

object triplex_node:207 {
	name 67_21495_RB_TX1;
	phases "BS";
	voltage_1 -60.000-103.923j;
	voltage_2 -60.000-103.923j;
	voltage_N 0;
}

object triplex_meter:208 {
	name 67_21495_RB_TX1_M;
	phases "BS";
	voltage_1 -60.000-103.923j;
	voltage_2 -60.000-103.923j;
	voltage_N 0;
}

object triplex_line:209 {
	name 67_21495_RB_TXL;
	from 67_21495_RB_TX1;
	to 67_21495_RB_TX1_M;
	length 30;
	configuration triplex_line_configuration:1;
}

object triplex_node:210 {
	name 67_21495_RB_TX2;
	parent 67_21495_RB_TX1_M;
	latitude 49N58'52.652";
	longitude 119W0'3.812";
	power_1 12+2.4372j;
	voltage_1 -60.000-103.923j;
	voltage_2 -60.000-103.923j;
	voltage_N 0;
}

object transformer:211  {
	phases "A|N";
	from 67_21492;
	to 67_21492_RA_TX1;
	configuration transformer_configuration:55;
}

object triplex_node:212 {
	name 67_21492_RA_TX1;
	phases "AS";
	voltage_1 120;
	voltage_2 120;
	voltage_N 0;
}

object triplex_meter:213 {
	name 67_21492_RA_TX1_M;
	phases "AS";
	voltage_1 120;
	voltage_2 120;
	voltage_N 0;
}

object triplex_line:214 {
	name 67_21492_RA_TXL;
	from 67_21492_RA_TX1;
	to 67_21492_RA_TX1_M;
	length 30;
	configuration triplex_line_configuration:1;
}

object triplex_node:215 {
	name 67_21492_RA_TX2;
	parent 67_21492_RA_TX1_M;
	latitude 49N58'53.972";
	longitude 119W0'11.597";
	power_1 18+3.6558j;
	voltage_1 120;
	voltage_2 120;
	voltage_N 0;
}

object transformer:216  {
	phases "A|N";
	from 67_21491;
	to 67_21491_RA_TX1;
	configuration transformer_configuration:55;
}

object triplex_node:217 {
	name 67_21491_RA_TX1;
	phases "AS";
	voltage_1 120;
	voltage_2 120;
	voltage_N 0;
}

object triplex_meter:218 {
	name 67_21491_RA_TX1_M;
	phases "AS";
	voltage_1 120;
	voltage_2 120;
	voltage_N 0;
}

object triplex_line:219 {
	name 67_21491_RA_TXL;
	from 67_21491_RA_TX1;
	to 67_21491_RA_TX1_M;
	length 30;
	configuration triplex_line_configuration:1;
}

object triplex_node:220 {
	name 67_21491_RA_TX2;
	parent 67_21491_RA_TX1_M;
	latitude 49N58'51.517";
	longitude 119W0'13.312";
	power_1 8+1.6248j;
	voltage_1 120;
	voltage_2 120;
	voltage_N 0;
}

object transformer:221  {
	phases "A|N";
	from 67_21490;
	to 67_21490_RA_TX1;
	configuration transformer_configuration:55;
}

object triplex_node:222 {
	name 67_21490_RA_TX1;
	phases "AS";
	voltage_1 120;
	voltage_2 120;
	voltage_N 0;
}

object triplex_meter:223 {
	name 67_21490_RA_TX1_M;
	phases "AS";
	voltage_1 120;
	voltage_2 120;
	voltage_N 0;
}

object triplex_line:224 {
	name 67_21490_RA_TXL;
	from 67_21490_RA_TX1;
	to 67_21490_RA_TX1_M;
	length 30;
	configuration triplex_line_configuration:1;
}

object triplex_node:225 {
	name 67_21490_RA_TX2;
	parent 67_21490_RA_TX1_M;
	latitude 49N58'50.735";
	longitude 119W0'9.750";
	power_1 7+1.4217j;
	voltage_1 120;
	voltage_2 120;
	voltage_N 0;
}

object transformer:226  {
	phases "A|N";
	from 67_21489;
	to 67_21489_RA_TX1;
	configuration transformer_configuration:55;
}

object triplex_node:227 {
	name 67_21489_RA_TX1;
	phases "AS";
	voltage_1 120;
	voltage_2 120;
	voltage_N 0;
}

object triplex_meter:228 {
	name 67_21489_RA_TX1_M;
	phases "AS";
	voltage_1 120;
	voltage_2 120;
	voltage_N 0;
}

object triplex_line:229 {
	name 67_21489_RA_TXL;
	from 67_21489_RA_TX1;
	to 67_21489_RA_TX1_M;
	length 30;
	configuration triplex_line_configuration:1;
}

object triplex_node:230 {
	name 67_21489_RA_TX2;
	parent 67_21489_RA_TX1_M;
	latitude 49N58'50.962";
	longitude 119W0'6.743";
	power_1 19+3.8589j;
	voltage_1 120;
	voltage_2 120;
	voltage_N 0;
}

object transformer:231  {
	phases "A|N";
	from 67_21488;
	to 67_21488_RA_TX1;
	configuration transformer_configuration:55;
}

object triplex_node:232 {
	name 67_21488_RA_TX1;
	phases "AS";
	voltage_1 120;
	voltage_2 120;
	voltage_N 0;
}

object triplex_meter:233 {
	name 67_21488_RA_TX1_M;
	phases "AS";
	voltage_1 120;
	voltage_2 120;
	voltage_N 0;
}

object triplex_line:234 {
	name 67_21488_RA_TXL;
	from 67_21488_RA_TX1;
	to 67_21488_RA_TX1_M;
	length 30;
	configuration triplex_line_configuration:1;
}

object triplex_node:235 {
	name 67_21488_RA_TX2;
	parent 67_21488_RA_TX1_M;
	latitude 49N58'49.454";
	longitude 119W0'6.916";
	power_1 2+0.4062j;
	voltage_1 120;
	voltage_2 120;
	voltage_N 0;
}

object transformer:236  {
	phases "B|N";
	from 67_21503;
	to 67_21503_RB_TX1;
	configuration transformer_configuration:66;
}

object triplex_node:237 {
	name 67_21503_RB_TX1;
	phases "BS";
	voltage_1 -60.000-103.923j;
	voltage_2 -60.000-103.923j;
	voltage_N 0;
}

object triplex_meter:238 {
	name 67_21503_RB_TX1_M;
	phases "BS";
	voltage_1 -60.000-103.923j;
	voltage_2 -60.000-103.923j;
	voltage_N 0;
}

object triplex_line:239 {
	name 67_21503_RB_TXL;
	from 67_21503_RB_TX1;
	to 67_21503_RB_TX1_M;
	length 30;
	configuration triplex_line_configuration:1;
}

object triplex_node:240 {
	name 67_21503_RB_TX2;
	parent 67_21503_RB_TX1_M;
	latitude 49N59'4.257";
	longitude 119W0'2.388";
	power_1 39+7.9209j;
	voltage_1 -60.000-103.923j;
	voltage_2 -60.000-103.923j;
	voltage_N 0;
}

object transformer:241  {
	phases "B|N";
	from 67_21502;
	to 67_21502_RB_TX1;
	configuration transformer_configuration:67;
}

object triplex_node:242 {
	name 67_21502_RB_TX1;
	phases "BS";
	voltage_1 -60.000-103.923j;
	voltage_2 -60.000-103.923j;
	voltage_N 0;
}

object triplex_meter:243 {
	name 67_21502_RB_TX1_M;
	phases "BS";
	voltage_1 -60.000-103.923j;
	voltage_2 -60.000-103.923j;
	voltage_N 0;
}

object triplex_line:244 {
	name 67_21502_RB_TXL;
	from 67_21502_RB_TX1;
	to 67_21502_RB_TX1_M;
	length 30;
	configuration triplex_line_configuration:1;
}

object triplex_node:245 {
	name 67_21502_RB_TX2;
	parent 67_21502_RB_TX1_M;
	latitude 49N59'7.005";
	longitude 119W0'3.407";
	power_1 30+6.093j;
	voltage_1 -60.000-103.923j;
	voltage_2 -60.000-103.923j;
	voltage_N 0;
}

object transformer:246  {
	phases "B|N";
	from 67_21498;
	to 67_21498_RB_TX1;
	configuration transformer_configuration:67;
}

object triplex_node:247 {
	name 67_21498_RB_TX1;
	phases "BS";
	voltage_1 -60.000-103.923j;
	voltage_2 -60.000-103.923j;
	voltage_N 0;
}

object triplex_meter:248 {
	name 67_21498_RB_TX1_M;
	phases "BS";
	voltage_1 -60.000-103.923j;
	voltage_2 -60.000-103.923j;
	voltage_N 0;
}

object triplex_line:249 {
	name 67_21498_RB_TXL;
	from 67_21498_RB_TX1;
	to 67_21498_RB_TX1_M;
	length 30;
	configuration triplex_line_configuration:1;
}

object triplex_node:250 {
	name 67_21498_RB_TX2;
	parent 67_21498_RB_TX1_M;
	latitude 49N59'2.819";
	longitude 119W0'7.650";
	power_1 54+10.9674j;
	voltage_1 -60.000-103.923j;
	voltage_2 -60.000-103.923j;
	voltage_N 0;
}

object transformer:251  {
	phases "B|N";
	from 67_21501;
	to 67_21501_RB_TX1;
	configuration transformer_configuration:67;
}

object triplex_node:252 {
	name 67_21501_RB_TX1;
	phases "BS";
	voltage_1 -60.000-103.923j;
	voltage_2 -60.000-103.923j;
	voltage_N 0;
}

object triplex_meter:253 {
	name 67_21501_RB_TX1_M;
	phases "BS";
	voltage_1 -60.000-103.923j;
	voltage_2 -60.000-103.923j;
	voltage_N 0;
}

object triplex_line:254 {
	name 67_21501_RB_TXL;
	from 67_21501_RB_TX1;
	to 67_21501_RB_TX1_M;
	length 30;
	configuration triplex_line_configuration:1;
}

object triplex_node:255 {
	name 67_21501_RB_TX2;
	parent 67_21501_RB_TX1_M;
	latitude 49N59'4.429";
	longitude 119W0'4.968";
	power_1 47+9.5457j;
	voltage_1 -60.000-103.923j;
	voltage_2 -60.000-103.923j;
	voltage_N 0;
}

object transformer:256  {
	phases "A|N";
	from 67_21514;
	to 67_21514_CA_TX1;
	configuration transformer_configuration:56;
}

object triplex_node:257 {
	name 67_21514_CA_TX1;
	phases "A|N";
}

object meter:258 {
	name 67_21514_CA_TX1_M;
	phases "AN";
	voltage_A 120;
}

object triplex_line:259 {
	name 67_21514_CA_TXL;
	from 67_21514_CA_TX1;
	to 67_21514_CA_TX1_M;
	length 30;
	configuration triplex_line_configuration:1;
}

object triplex_node:260 {
	name 67_21514_CA_TX2;
	parent 67_21514_CA_TX1_M;
	latitude 49N58'57.868";
	longitude 118W59'13.598";
	power_1 11+2.2341j;
	voltage_1 120;
	voltage_2 120;
	voltage_N 0;
}

object transformer:261  {
	phases "A|B|C|N";
	from 67_73;
	to 67_73_C_M;
	configuration transformer_configuration:87;
}

object meter:262 {
	name 67_73_C_M;
	phases "ABCN";
	nominal_voltage 7216.878;
	voltage_A 7216.878+0.0j;
	voltage_B -3608.439-6250.000j;
	voltage_C -3608.439+6250.000j;
}
object transformer:263  {
	phases "A|B|C|N";
	from 67_74;
	to 67_74_C_M;
	configuration transformer_configuration:87;
}

object meter:264 {
	name 67_74_C_M;
	phases "ABCN";
	nominal_voltage 7216.878;
	voltage_A 7216.878+0.0j;
	voltage_B -3608.439-6250.000j;
	voltage_C -3608.439+6250.000j;
}
object transformer:265  {
	phases "A|N";
	from 67_21515;
	to 67_21515_CA_TX1;
	configuration transformer_configuration:56;
}

object triplex_node:266 {
	name 67_21515_CA_TX1;
	phases "A|N";
}

object meter:267 {
	name 67_21515_CA_TX1_M;
	phases "AN";
	voltage_A 120;
}

object triplex_line:268 {
	name 67_21515_CA_TXL;
	from 67_21515_CA_TX1;
	to 67_21515_CA_TX1_M;
	length 30;
	configuration triplex_line_configuration:1;
}

object triplex_node:269 {
	name 67_21515_CA_TX2;
	parent 67_21515_CA_TX1_M;
	latitude 49N58'59.153";
	longitude 118W59'14.923";
	power_1 4+0.8124j;
	voltage_1 120;
	voltage_2 120;
	voltage_N 0;
}

object transformer:270  {
	phases "B|N";
	from 67_21527;
	to 67_21527_RB_TX1;
	configuration transformer_configuration:68;
}

object triplex_node:271 {
	name 67_21527_RB_TX1;
	phases "BS";
	voltage_1 -60.000-103.923j;
	voltage_2 -60.000-103.923j;
	voltage_N 0;
}

object triplex_meter:272 {
	name 67_21527_RB_TX1_M;
	phases "BS";
	voltage_1 -60.000-103.923j;
	voltage_2 -60.000-103.923j;
	voltage_N 0;
}

object triplex_line:273 {
	name 67_21527_RB_TXL;
	from 67_21527_RB_TX1;
	to 67_21527_RB_TX1_M;
	length 30;
	configuration triplex_line_configuration:1;
}

object triplex_node:274 {
	name 67_21527_RB_TX2;
	parent 67_21527_RB_TX1_M;
	latitude 49N58'57.224";
	longitude 118W59'38.783";
	power_1 0+0j;
	voltage_1 -60.000-103.923j;
	voltage_2 -60.000-103.923j;
	voltage_N 0;
}

object transformer:275  {
	phases "B|N";
	from 67_21528;
	to 67_21528_RB_TX1;
	configuration transformer_configuration:68;
}

object triplex_node:276 {
	name 67_21528_RB_TX1;
	phases "BS";
	voltage_1 -60.000-103.923j;
	voltage_2 -60.000-103.923j;
	voltage_N 0;
}

object triplex_meter:277 {
	name 67_21528_RB_TX1_M;
	phases "BS";
	voltage_1 -60.000-103.923j;
	voltage_2 -60.000-103.923j;
	voltage_N 0;
}

object triplex_line:278 {
	name 67_21528_RB_TXL;
	from 67_21528_RB_TX1;
	to 67_21528_RB_TX1_M;
	length 30;
	configuration triplex_line_configuration:1;
}

object triplex_node:279 {
	name 67_21528_RB_TX2;
	parent 67_21528_RB_TX1_M;
	latitude 49N59'0.095";
	longitude 118W59'39.358";
	power_1 0+0j;
	voltage_1 -60.000-103.923j;
	voltage_2 -60.000-103.923j;
	voltage_N 0;
}

object transformer:280  {
	phases "B|N";
	from 67_21529;
	to 67_21529_RB_TX1;
	configuration transformer_configuration:69;
}

object triplex_node:281 {
	name 67_21529_RB_TX1;
	phases "BS";
	voltage_1 -60.000-103.923j;
	voltage_2 -60.000-103.923j;
	voltage_N 0;
}

object triplex_meter:282 {
	name 67_21529_RB_TX1_M;
	phases "BS";
	voltage_1 -60.000-103.923j;
	voltage_2 -60.000-103.923j;
	voltage_N 0;
}

object triplex_line:283 {
	name 67_21529_RB_TXL;
	from 67_21529_RB_TX1;
	to 67_21529_RB_TX1_M;
	length 30;
	configuration triplex_line_configuration:1;
}

object triplex_node:284 {
	name 67_21529_RB_TX2;
	parent 67_21529_RB_TX1_M;
	latitude 49N58'59.789";
	longitude 118W59'36.397";
	power_1 0+0j;
	voltage_1 -60.000-103.923j;
	voltage_2 -60.000-103.923j;
	voltage_N 0;
}

object transformer:285  {
	phases "B|N";
	from 67_21530;
	to 67_21530_RB_TX1;
	configuration transformer_configuration:68;
}

object triplex_node:286 {
	name 67_21530_RB_TX1;
	phases "BS";
	voltage_1 -60.000-103.923j;
	voltage_2 -60.000-103.923j;
	voltage_N 0;
}

object triplex_meter:287 {
	name 67_21530_RB_TX1_M;
	phases "BS";
	voltage_1 -60.000-103.923j;
	voltage_2 -60.000-103.923j;
	voltage_N 0;
}

object triplex_line:288 {
	name 67_21530_RB_TXL;
	from 67_21530_RB_TX1;
	to 67_21530_RB_TX1_M;
	length 30;
	configuration triplex_line_configuration:1;
}

object triplex_node:289 {
	name 67_21530_RB_TX2;
	parent 67_21530_RB_TX1_M;
	latitude 49N58'59.448";
	longitude 118W59'33.716";
	power_1 0+0j;
	voltage_1 -60.000-103.923j;
	voltage_2 -60.000-103.923j;
	voltage_N 0;
}

object transformer:290  {
	phases "B|N";
	from 67_21532;
	to 67_21532_RB_TX1;
	configuration transformer_configuration:68;
}

object triplex_node:291 {
	name 67_21532_RB_TX1;
	phases "BS";
	voltage_1 -60.000-103.923j;
	voltage_2 -60.000-103.923j;
	voltage_N 0;
}

object triplex_meter:292 {
	name 67_21532_RB_TX1_M;
	phases "BS";
	voltage_1 -60.000-103.923j;
	voltage_2 -60.000-103.923j;
	voltage_N 0;
}

object triplex_line:293 {
	name 67_21532_RB_TXL;
	from 67_21532_RB_TX1;
	to 67_21532_RB_TX1_M;
	length 30;
	configuration triplex_line_configuration:1;
}

object triplex_node:294 {
	name 67_21532_RB_TX2;
	parent 67_21532_RB_TX1_M;
	latitude 49N58'58.238";
	longitude 118W59'37.900";
	power_1 1+0.2031j;
	voltage_1 -60.000-103.923j;
	voltage_2 -60.000-103.923j;
	voltage_N 0;
}

object transformer:295  {
	phases "B|N";
	from 67_21531;
	to 67_21531_RB_TX1;
	configuration transformer_configuration:69;
}

object triplex_node:296 {
	name 67_21531_RB_TX1;
	phases "BS";
	voltage_1 -60.000-103.923j;
	voltage_2 -60.000-103.923j;
	voltage_N 0;
}

object triplex_meter:297 {
	name 67_21531_RB_TX1_M;
	phases "BS";
	voltage_1 -60.000-103.923j;
	voltage_2 -60.000-103.923j;
	voltage_N 0;
}

object triplex_line:298 {
	name 67_21531_RB_TXL;
	from 67_21531_RB_TX1;