// $Id: R2-12.47-2.glm 228 2009-05-27 18:16:10Z ychen $ 
//*********************************************

clock { 
	 timezone CST+6CDT;
	 timestamp '2000-01-01 0:00:00';
}

//*********************************************

clock { 
	 timestamp '2000-01-01 0:00:00';
	 timezone EST+5EDT;
}

//*********************************************
// modules
module powerflow;


object fuse:1236 {
	name R4-12-47-2_fuse_1;
	phases "AN";
	from R4-12-47-2_node_203;
	to R4-12-47-2_node_161;
	current_limit 75;
	status CLOSED;
}

object fuse:1237 {
	name R4-12-47-2_fuse_2;
	phases "AN";
	from R4-12-47-2_node_230;
	to R4-12-47-2_node_261;
	current_limit 75;
	status CLOSED;
}

object fuse:1238 {
	name R4-12-47-2_fuse_3;
	phases "CN";
	from R4-12-47-2_node_81;
	to R4-12-47-2_node_200;
	current_limit 50;
	status CLOSED;
}

object fuse:1239 {
	name R4-12-47-2_fuse_4;
	phases "BN";
	from R4-12-47-2_node_279;
	to R4-12-47-2_node_268;
	current_limit 75;
	status CLOSED;
}

object fuse:1240 {
	name R4-12-47-2_fuse_5;
	phases "BN";
	from R4-12-47-2_node_229;
	to R4-12-47-2_node_252;
	current_limit 75;
	status CLOSED;
}

object fuse:1241 {
	name R4-12-47-2_fuse_6;
	phases "ABCN";
	from R4-12-47-2_node_140;
	to R4-12-47-2_node_149;
	current_limit 75;
	status CLOSED;
}

object fuse:1242 {
	name R4-12-47-2_fuse_7;
	phases "BCN";
	from R4-12-47-2_node_255;
	to R4-12-47-2_node_244;
	current_limit 75;
	status CLOSED;
}

object fuse:1243 {
	name R4-12-47-2_fuse_8;
	phases "CN";
	from R4-12-47-2_node_243;
	to R4-12-47-2_node_231;
	current_limit 30;
	status CLOSED;
}

object fuse:1244 {
	name R4-12-47-2_fuse_9;
	phases "CN";
	from R4-12-47-2_node_192;
	to R4-12-47-2_node_130;
	current_limit 75;
	status CLOSED;
}

object fuse:1245 {
	name R4-12-47-2_fuse_10;
	phases "CN";
	from R4-12-47-2_node_223;
	to R4-12-47-2_node_269;
	current_limit 75;
	status CLOSED;
}

object fuse:1246 {
	name R4-12-47-2_fuse_11;
	phases "ACN";
	from R4-12-47-2_node_251;
	to R4-12-47-2_node_257;
	current_limit 75;
	status CLOSED;
}

object fuse:1247 {
	name R4-12-47-2_fuse_12;
	phases "CN";
	from R4-12-47-2_node_271;
	to R4-12-47-2_node_233;
	current_limit 50;
	status CLOSED;
}

object fuse:1248 {
	name R4-12-47-2_fuse_13;
	phases "AN";
	from R4-12-47-2_node_280;
	to R4-12-47-2_node_276;
	current_limit 75;
	status CLOSED;
}

object fuse:1253 {
	name R4-12-47-2_fuse_14;
	phases "CN";
	from R4-12-47-2_node_253;
	to R4-12-47-2_node_265;
	current_limit 60;
	status CLOSED;
}

object fuse:1255 {
	name R4-12-47-2_fuse_15;
	phases "ABCN";
	from R4-12-47-2_node_258;
	to R4-12-47-2_node_215;
	current_limit 75;
	status CLOSED;
}

object fuse:1256 {
	name R4-12-47-2_fuse_16;
	phases "ABCN";
	from R4-12-47-2_node_227;
	to R4-12-47-2_node_247;
	current_limit 75;
	status CLOSED;
}

object fuse:1259 {
	name R4-12-47-2_fuse_17;
	phases "BN";
	from R4-12-47-2_node_263;
	to R4-12-47-2_node_241;
	current_limit 75;
	status CLOSED;
}

object fuse:1260 {
	name R4-12-47-2_fuse_18;
	phases "ABN";
	from R4-12-47-2_node_248;
	to R4-12-47-2_node_220;
	current_limit 80;
	status CLOSED;
}

object fuse:1261 {
	name R4-12-47-2_fuse_19;
	phases "ABCN";
	from R4-12-47-2_node_218;
	to R4-12-47-2_node_267;
	current_limit 80;
	status CLOSED;
}

object line_configuration:923 {
	conductor_C overhead_line_conductor:16;
	conductor_N overhead_line_conductor:16;
	spacing line_spacing:922;
}

object line_configuration:924 {
	conductor_C overhead_line_conductor:11;
	conductor_N overhead_line_conductor:11;
	spacing line_spacing:922;
}

object line_configuration:925 {
	conductor_C overhead_line_conductor:15;
	conductor_N overhead_line_conductor:15;
	spacing line_spacing:922;
}

object line_configuration:927 {
	conductor_A overhead_line_conductor:16;
	conductor_N overhead_line_conductor:16;
	spacing line_spacing:926;
}

object line_configuration:929 {
	conductor_A overhead_line_conductor:16;
	conductor_B overhead_line_conductor:16;
	conductor_N overhead_line_conductor:16;
	spacing line_spacing:928;
}

object line_configuration:931 {
	conductor_A overhead_line_conductor:16;
	conductor_B overhead_line_conductor:16;
	conductor_N overhead_line_conductor:16;
	spacing line_spacing:930;
}

object line_configuration:933 {
	conductor_B overhead_line_conductor:16;
	conductor_N overhead_line_conductor:16;
	spacing line_spacing:932;
}

object line_configuration:935 {
	conductor_A overhead_line_conductor:11;
	conductor_B overhead_line_conductor:11;
	conductor_C overhead_line_conductor:11;
	conductor_N overhead_line_conductor:11;
	spacing line_spacing:934;
}

object line_configuration:937 {
	conductor_B overhead_line_conductor:16;
	conductor_C overhead_line_conductor:16;
	conductor_N overhead_line_conductor:16;
	spacing line_spacing:936;
}

object line_configuration:938 {
	conductor_C overhead_line_conductor:11;
	conductor_N overhead_line_conductor:11;
	spacing line_spacing:922;
}

object line_configuration:940 {
	conductor_A overhead_line_conductor:11;
	conductor_C overhead_line_conductor:11;
	conductor_N overhead_line_conductor:11;
	spacing line_spacing:939;
}

object line_configuration:942 {
	conductor_C underground_line_conductor:44;
	conductor_N underground_line_conductor:44;
	spacing line_spacing:941;
}

object line_configuration:944 {
	conductor_A underground_line_conductor:44;
	conductor_N underground_line_conductor:44;
	spacing line_spacing:943;
}

object line_configuration:946 {
	conductor_B underground_line_conductor:44;
	conductor_N underground_line_conductor:44;
	spacing line_spacing:945;
}

object line_configuration:948 {
	conductor_A underground_line_conductor:44;
	conductor_B underground_line_conductor:44;
	conductor_C underground_line_conductor:44;
	conductor_N underground_line_conductor:44;
	spacing line_spacing:947;
}

object line_configuration:950 {
	conductor_A overhead_line_conductor:29;
	conductor_B overhead_line_conductor:29;
	conductor_C overhead_line_conductor:29;
	conductor_N overhead_line_conductor:29;
	spacing line_spacing:949;
}

object line_configuration:951 {
	conductor_A overhead_line_conductor:29;
	conductor_B overhead_line_conductor:29;
	conductor_C overhead_line_conductor:29;
	conductor_N overhead_line_conductor:29;
	spacing line_spacing:934;
}

object line_configuration:953 {
	conductor_A overhead_line_conductor:29;
	conductor_B overhead_line_conductor:29;
	conductor_C overhead_line_conductor:29;
	conductor_N overhead_line_conductor:29;
	spacing line_spacing:952;
}

object line_configuration:954 {
	conductor_A overhead_line_conductor:19;
	conductor_B overhead_line_conductor:19;
	conductor_C overhead_line_conductor:19;
	conductor_N overhead_line_conductor:19;
	spacing line_spacing:949;
}

object line_configuration:955 {
	conductor_A overhead_line_conductor:23;
	conductor_B overhead_line_conductor:23;
	conductor_C overhead_line_conductor:23;
	conductor_N overhead_line_conductor:23;
	spacing line_spacing:934;
}

object line_configuration:956 {
	conductor_A overhead_line_conductor:23;
	conductor_B overhead_line_conductor:23;
	conductor_C overhead_line_conductor:23;
	conductor_N overhead_line_conductor:23;
	spacing line_spacing:949;
}

object line_configuration:958 {
	conductor_A overhead_line_conductor:11;
	conductor_C overhead_line_conductor:11;
	conductor_N overhead_line_conductor:11;
	spacing line_spacing:957;
}

object line_configuration:959 {
	conductor_C overhead_line_conductor:16;
	conductor_N overhead_line_conductor:16;
	spacing line_spacing:922;
}

object line_configuration:960 {
	conductor_A overhead_line_conductor:19;
	conductor_B overhead_line_conductor:19;
	conductor_N overhead_line_conductor:19;
	spacing line_spacing:930;
}

object line_configuration:961 {
	conductor_B underground_line_conductor:44;
	conductor_N underground_line_conductor:44;
	spacing line_spacing:932;
}

object line_configuration:962 {
	conductor_A underground_line_conductor:47;
	conductor_B underground_line_conductor:47;
	conductor_C underground_line_conductor:47;
	conductor_N underground_line_conductor:47;
	spacing line_spacing:947;
}

object line_configuration:963 {
	conductor_A underground_line_conductor:45;
	conductor_B underground_line_conductor:45;
	conductor_C underground_line_conductor:45;
	conductor_N underground_line_conductor:45;
	spacing line_spacing:947;
}

object line_configuration:964 {
	conductor_C underground_line_conductor:44;
	conductor_N underground_line_conductor:44;
	spacing line_spacing:922;
}


object line_spacing:922 {
	distance_CN 48.0 in;
}

object line_spacing:926 {
	distance_AN 48.0 in;
}

object line_spacing:928 {
	distance_AB 48.0 in;
	distance_AN 48.0 in;
	distance_BN 48.0 in;
}

object line_spacing:930 {
	distance_AB 51.6 in;
	distance_AN 48.0 in;
	distance_BN 48.0 in;
}

object line_spacing:932 {
	distance_BN 48.0 in;
}

object line_spacing:934 {
	distance_AB 57.6 in;
	distance_BC 57.6 in;
	distance_AC 57.6 in;
	distance_AN 48.0 in;
	distance_BN 48.0 in;
	distance_CN 48.0 in;
}

object line_spacing:936 {
	distance_BC 51.6 in;
	distance_BN 48.0 in;
	distance_CN 48.0 in;
}

object line_spacing:939 {
	distance_AC 51.6 in;
	distance_AN 48.0 in;
	distance_CN 48.0 in;
}

object line_spacing:941 {
	distance_CN 0.0 in;
}

object line_spacing:943 {
	distance_AN 0.0 in;
}

object line_spacing:945 {
	distance_BN 0.0 in;
}

object line_spacing:947 {
	distance_AB 0.0 in;
	distance_BC 0.0 in;
	distance_AC 0.0 in;
	distance_AN 0.0 in;
	distance_BN 0.0 in;
	distance_CN 0.0 in;
}

object line_spacing:949 {
	distance_AB 48.0 in;
	distance_BC 48.0 in;
	distance_AC 48.0 in;
	distance_AN 48.0 in;
	distance_BN 48.0 in;
	distance_CN 48.0 in;
}

object line_spacing:952 {
	distance_AB 46.3 in;
	distance_BC 46.3 in;
	distance_AC 46.3 in;
	distance_AN 48.0 in;
	distance_BN 48.0 in;
	distance_CN 48.0 in;
}

object line_spacing:957 {
	distance_AC 48.0 in;
	distance_AN 48.0 in;
	distance_CN 48.0 in;
}


object load {
	name R4-12-47-2_load_1;
	parent R4-12-47-2_meter_1;
	phases "ABN";
	voltage_A 7216.878+0.0j;
	voltage_B -3608.439-6250.000j;
	nominal_voltage 7216.878;
	constant_power_A 1500.000+304.650j;
	constant_power_B 1500.000+304.650j;
	load_class "C";

}

object load {
	name R4-12-47-2_load_2;
	parent R4-12-47-2_meter_2;
	phases "ABCN";
	voltage_A 7216.878+0.0j;
	voltage_B -3608.439-6250.000j;
	voltage_C -3608.439+6250.000j;
	nominal_voltage 7216.878;
	constant_power_A 666.667+135.400j;
	constant_power_B 666.667+135.400j;
	constant_power_C 666.667+135.400j;
	load_class "C";

}

object load {
	name R4-12-47-2_load_3;
	parent R4-12-47-2_meter_3;
	phases "ABCN";
	voltage_A 7216.878+0.0j;
	voltage_B -3608.439-6250.000j;
	voltage_C -3608.439+6250.000j;
	nominal_voltage 7216.878;
	constant_power_A 1666.667+338.500j;
	constant_power_B 1666.667+338.500j;
	constant_power_C 1666.667+338.500j;
	load_class "C";

}

object load {
	name R4-12-47-2_load_4;
	parent R4-12-47-2_meter_4;
	phases "ABCN";
	voltage_A 7216.878+0.0j;
	voltage_B -3608.439-6250.000j;
	voltage_C -3608.439+6250.000j;
	nominal_voltage 7216.878;
	constant_power_A 333.333+67.700j;
	constant_power_B 333.333+67.700j;
	constant_power_C 333.333+67.700j;
	load_class "C";

}

object load {
	name R4-12-47-2_load_5;
	parent R4-12-47-2_meter_5;
	phases "ABCN";
	voltage_A 7216.878+0.0j;
	voltage_B -3608.439-6250.000j;
	voltage_C -3608.439+6250.000j;
	nominal_voltage 7216.878;
	constant_power_A 10000.000+2031.000j;
	constant_power_B 10000.000+2031.000j;
	constant_power_C 10000.000+2031.000j;
	load_class "C";

}

object load {
	name R4-12-47-2_load_6;
	parent R4-12-47-2_meter_6;
	phases "ABCN";
	voltage_A 7216.878+0.0j;
	voltage_B -3608.439-6250.000j;
	voltage_C -3608.439+6250.000j;
	nominal_voltage 7216.878;
	constant_power_A 12333.333+2504.900j;
	constant_power_B 12333.333+2504.900j;
	constant_power_C 12333.333+2504.900j;
	load_class "C";

}

object load {
	name R4-12-47-2_load_7;
	parent R4-12-47-2_meter_7;
	phases "ABCN";
	voltage_A 7216.878+0.0j;
	voltage_B -3608.439-6250.000j;
	voltage_C -3608.439+6250.000j;
	nominal_voltage 7216.878;
	constant_power_A 4000.000+812.400j;
	constant_power_B 4000.000+812.400j;
	constant_power_C 4000.000+812.400j;
	load_class "C";

}

object load {
	name R4-12-47-2_load_8;
	parent R4-12-47-2_meter_8;
	phases "ABCN";
	voltage_A 7216.878+0.0j;
	voltage_B -3608.439-6250.000j;
	voltage_C -3608.439+6250.000j;
	nominal_voltage 7216.878;
	constant_power_A 7333.333+1489.400j;
	constant_power_B 7333.333+1489.400j;
	constant_power_C 7333.333+1489.400j;
	load_class "C";

}


object meter:111 {
	name R4-12-47-2_meter_1;
	phases "ABN";
	nominal_voltage 7216.878; 
	voltage_A 7216.878+0.0j;
	voltage_B -3608.439-6250.000j;
}

object meter:203 {
	name R4-12-47-2_meter_2;
	phases "ABCN";
	nominal_voltage 7216.878; 
	voltage_A 7216.878+0.0j;
	voltage_B -3608.439-6250.000j;
	voltage_C -3608.439+6250.000j;
}

object meter:205 {
	name R4-12-47-2_meter_3;
	phases "ABCN";
	nominal_voltage 7216.878; 
	voltage_A 7216.878+0.0j;
	voltage_B -3608.439-6250.000j;
	voltage_C -3608.439+6250.000j;
}

object meter:249 {
	name R4-12-47-2_meter_4;
	phases "ABCN";
	nominal_voltage 7216.878; 
	voltage_A 7216.878+0.0j;
	voltage_B -3608.439-6250.000j;
	voltage_C -3608.439+6250.000j;
}

object meter:266 {
	name R4-12-47-2_meter_5;
	phases "ABCN";
	nominal_voltage 7216.878; 
	voltage_A 7216.878+0.0j;
	voltage_B -3608.439-6250.000j;
	voltage_C -3608.439+6250.000j;
}

object meter:274 {
	name R4-12-47-2_meter_6;
	phases "ABCN";
	nominal_voltage 7216.878; 
	voltage_A 7216.878+0.0j;
	voltage_B -3608.439-6250.000j;
	voltage_C -3608.439+6250.000j;
}

object meter:282 {
	name R4-12-47-2_meter_7;
	phases "ABCN";
	nominal_voltage 7216.878; 
	voltage_A 7216.878+0.0j;
	voltage_B -3608.439-6250.000j;
	voltage_C -3608.439+6250.000j;
}

object meter:305 {
	name R4-12-47-2_meter_8;
	phases "ABCN";
	nominal_voltage 7216.878; 
	voltage_A 7216.878+0.0j;
	voltage_B -3608.439-6250.000j;
	voltage_C -3608.439+6250.000j;
}

// Meter at feeder
object meter:504 {
	name R4-12-47-2_meter_9;
	phases "ABCN";
	nominal_voltage 7216.878; 
	voltage_A 7216.878+0.0j;
	voltage_B -3608.439-6250.000j;
	voltage_C -3608.439+6250.000j;
}


object node:505 {
	name R4-12-47-2_node_1;
	phases "BN";
	voltage_B -3608.439-6250.000j;
	nominal_voltage 7216.878;
}

object node:507 {
	name R4-12-47-2_node_2;
	phases "AN";
	voltage_A 7216.878+0.0j;
	nominal_voltage 7216.878;
}

object node:508 {
	name R4-12-47-2_node_3;
	phases "AN";
	voltage_A 7216.878+0.0j;
	nominal_voltage 7216.878;
}

object node:509 {
	name R4-12-47-2_node_4;
	phases "AN";
	voltage_A 7216.878+0.0j;
	nominal_voltage 7216.878;
}

object node:510 {
	name R4-12-47-2_node_5;
	phases "CN";
	voltage_C -3608.439+6250.000j;
	nominal_voltage 7216.878;
}

object node:511 {
	name R4-12-47-2_node_6;
	phases "BN";
	voltage_B -3608.439-6250.000j;
	nominal_voltage 7216.878;
}

object node:512 {
	name R4-12-47-2_node_7;
	phases "ABCN";
	voltage_A 7216.878+0.0j;
	voltage_B -3608.439-6250.000j;
	voltage_C -3608.439+6250.000j;
	nominal_voltage 7216.878;
}

object node:513 {
	name R4-12-47-2_node_8;
	phases "AN";
	voltage_A 7216.878+0.0j;
	nominal_voltage 7216.878;
}

object node:514 {
	name R4-12-47-2_node_9;
	phases "BN";
	voltage_B -3608.439-6250.000j;
	nominal_voltage 7216.878;
}

object node:515 {
	name R4-12-47-2_node_10;
	phases "ABCN";
	voltage_A 7216.878+0.0j;
	voltage_B -3608.439-6250.000j;
	voltage_C -3608.439+6250.000j;
	nominal_voltage 7216.878;
}

object node:516 {
	name R4-12-47-2_node_11;
	phases "ABCN";
	voltage_A 7216.878+0.0j;
	voltage_B -3608.439-6250.000j;
	voltage_C -3608.439+6250.000j;
	nominal_voltage 7216.878;
}

object node:517 {
	name R4-12-47-2_node_12;
	phases "ABCN";
	voltage_A 7216.878+0.0j;
	voltage_B -3608.439-6250.000j;
	voltage_C -3608.439+6250.000j;
	nominal_voltage 7216.878;
}

object node:518 {
	name R4-12-47-2_node_13;
	phases "ABCN";
	voltage_A 7216.878+0.0j;
	voltage_B -3608.439-6250.000j;
	voltage_C -3608.439+6250.000j;
	nominal_voltage 7216.878;
}

object node:519 {
	name R4-12-47-2_node_14;
	phases "CN";
	voltage_C -3608.439+6250.000j;
	nominal_voltage 7216.878;
}

object node:520 {
	name R4-12-47-2_node_15;
	phases "ABCN";
	voltage_A 7216.878+0.0j;
	voltage_B -3608.439-6250.000j;
	voltage_C -3608.439+6250.000j;
	nominal_voltage 7216.878;
}

object node:521 {
	name R4-12-47-2_node_16;
	phases "ABCN";
	voltage_A 7216.878+0.0j;
	voltage_B -3608.439-6250.000j;
	voltage_C -3608.439+6250.000j;
	nominal_voltage 7216.878;
}

object node:522 {
	name R4-12-47-2_node_17;
	phases "BN";
	voltage_B -3608.439-6250.000j;
	nominal_voltage 7216.878;
}

object node:523 {
	name R4-12-47-2_node_18;
	phases "ABCN";
	voltage_A 7216.878+0.0j;
	voltage_B -3608.439-6250.000j;
	voltage_C -3608.439+6250.000j;
	nominal_voltage 7216.878;
}

object node:524 {
	name R4-12-47-2_node_19;
	phases "CN";
	voltage_C -3608.439+6250.000j;
	nominal_voltage 7216.878;
}

object node:525 {
	name R4-12-47-2_node_20;
	phases "AN";
	voltage_A 7216.878+0.0j;
	nominal_voltage 7216.878;
}

object node:526 {
	name R4-12-47-2_node_21;
	phases "BN";
	voltage_B -3608.439-6250.000j;
	nominal_voltage 7216.878;
}

object node:527 {
	name R4-12-47-2_node_22;
	phases "CN";
	voltage_C -3608.439+6250.000j;
	nominal_voltage 7216.878;
}

object node:528 {
	name R4-12-47-2_node_23;
	phases "BN";
	voltage_B -3608.439-6250.000j;
	nominal_voltage 7216.878;
}

object node:529 {
	name R4-12-47-2_node_24;
	phases "AN";
	voltage_A 7216.878+0.0j;
	nominal_voltage 7216.878;
}

object node:530 {
	name R4-12-47-2_node_25;
	phases "AN";
	voltage_A 7216.878+0.0j;
	nominal_voltage 7216.878;
}

object node:531 {
	name R4-12-47-2_node_26;
	phases "AN";
	voltage_A 7216.878+0.0j;
	nominal_voltage 7216.878;
}

object node:532 {
	name R4-12-47-2_node_27;
	phases "ABCN";
	voltage_A 7216.878+0.0j;
	voltage_B -3608.439-6250.000j;
	voltage_C -3608.439+6250.000j;
	nominal_voltage 7216.878;
}

object node:533 {
	name R4-12-47-2_node_28;
	phases "CN";
	voltage_C -3608.439+6250.000j;
	nominal_voltage 7216.878;
}

object node:534 {
	name R4-12-47-2_node_29;
	phases "CN";
	voltage_C -3608.439+6250.000j;
	nominal_voltage 7216.878;
}

object node:535 {
	name R4-12-47-2_node_30;
	phases "BN";
	voltage_B -3608.439-6250.000j;
	nominal_voltage 7216.878;
}

object node:536 {
	name R4-12-47-2_node_31;
	phases "ACN";
	voltage_A 7216.878+0.0j;
	voltage_C -3608.439+6250.000j;
	nominal_voltage 7216.878;
}

object node:537 {
	name R4-12-47-2_node_32;
	phases "BN";
	voltage_B -3608.439-6250.000j;
	nominal_voltage 7216.878;
}

object node:538 {
	name R4-12-47-2_node_33;
	phases "ABCN";
	voltage_A 7216.878+0.0j;
	voltage_B -3608.439-6250.000j;
	voltage_C -3608.439+6250.000j;
	nominal_voltage 7216.878;
}

object node:539 {
	name R4-12-47-2_node_34;
	phases "BN";
	voltage_B -3608.439-6250.000j;
	nominal_voltage 7216.878;
}

object node:540 {
	name R4-12-47-2_node_35;
	phases "AN";
	voltage_A 7216.878+0.0j;
	nominal_voltage 7216.878;
}

object node:541 {
	name R4-12-47-2_node_36;
	phases "BCN";
	voltage_B -3608.439-6250.000j;
	voltage_C -3608.439+6250.000j;
	nominal_voltage 7216.878;
}

object node:542 {
	name R4-12-47-2_node_37;
	phases "AN";
	voltage_A 7216.878+0.0j;
	nominal_voltage 7216.878;
}

object node:543 {
	name R4-12-47-2_node_38;
	phases "AN";
	voltage_A 7216.878+0.0j;
	nominal_voltage 7216.878;
}

object node:545 {
	name R4-12-47-2_node_39;
	phases "CN";
	voltage_C -3608.439+6250.000j;
	nominal_voltage 7216.878;
}

object node:544 {
	name R4-12-47-2_node_40;
	phases "CN";
	voltage_C -3608.439+6250.000j;
	nominal_voltage 7216.878;
}

object node:546 {
	name R4-12-47-2_node_41;
	phases "CN";
	voltage_C -3608.439+6250.000j;
	nominal_voltage 7216.878;
}

object node:547 {
	name R4-12-47-2_node_42;
	phases "AN";
	voltage_A 7216.878+0.0j;
	nominal_voltage 7216.878;
}

object node:548 {
	name R4-12-47-2_node_43;
	phases "BN";
	voltage_B -3608.439-6250.000j;
	nominal_voltage 7216.878;
}

object node:549 {
	name R4-12-47-2_node_44;
	phases "BN";
	voltage_B -3608.439-6250.000j;
	nominal_voltage 7216.878;
}

object node:550 {
	name R4-12-47-2_node_45;
	phases "CN";
	voltage_C -3608.439+6250.000j;
	nominal_voltage 7216.878;
}

object node:551 {
	name R4-12-47-2_node_46;
	phases "AN";
	voltage_A 7216.878+0.0j;
	nominal_voltage 7216.878;
}

object node:553 {
	name R4-12-47-2_node_47;
	phases "ABCN";
	voltage_A 7216.878+0.0j;
	voltage_B -3608.439-6250.000j;
	voltage_C -3608.439+6250.000j;
	nominal_voltage 7216.878;
}

object node:557 {
	name R4-12-47-2_node_48;
	phases "BN";
	voltage_B -3608.439-6250.000j;
	nominal_voltage 7216.878;
}

object node:558 {
	name R4-12-47-2_node_49;
	phases "CN";
	voltage_C -3608.439+6250.000j;
	nominal_voltage 7216.878;
}

object node:560 {
	name R4-12-47-2_node_50;
	phases "AN";
	voltage_A 7216.878+0.0j;
	nominal_voltage 7216.878;
}

object node:562 {
	name R4-12-47-2_node_51;
	phases "AN";
	voltage_A 7216.878+0.0j;
	nominal_voltage 7216.878;
}

object node:568 {
	name R4-12-47-2_node_52;
	phases "BN";
	voltage_B -3608.439-6250.000j;
	nominal_voltage 7216.878;
}

object node:570 {
	name R4-12-47-2_node_53;
	phases "CN";
	voltage_C -3608.439+6250.000j;
	nominal_voltage 7216.878;
}

object node:569 {
	name R4-12-47-2_node_54;
	phases "AN";
	voltage_A 7216.878+0.0j;
	nominal_voltage 7216.878;
}

object node:571 {
	name R4-12-47-2_node_55;
	phases "BN";
	voltage_B -3608.439-6250.000j;
	nominal_voltage 7216.878;
}

object node:573 {
	name R4-12-47-2_node_56;
	phases "AN";
	voltage_A 7216.878+0.0j;
	nominal_voltage 7216.878;
}

object node:574 {
	name R4-12-47-2_node_57;
	phases "BN";
	voltage_B -3608.439-6250.000j;
	nominal_voltage 7216.878;
}

object node:576 {
	name R4-12-47-2_node_58;
	phases "ABCN";
	voltage_A 7216.878+0.0j;
	voltage_B -3608.439-6250.000j;
	voltage_C -3608.439+6250.000j;
	nominal_voltage 7216.878;
}

object node:580 {
	name R4-12-47-2_node_59;
	phases "BN";
	voltage_B -3608.439-6250.000j;
	nominal_voltage 7216.878;
}

object node:581 {
	name R4-12-47-2_node_60;
	phases "ABCN";
	voltage_A 7216.878+0.0j;
	voltage_B -3608.439-6250.000j;
	voltage_C -3608.439+6250.000j;
	nominal_voltage 7216.878;
}

object node:584 {
	name R4-12-47-2_node_61;
	phases "CN";
	voltage_C -3608.439+6250.000j;
	nominal_voltage 7216.878;
}

object node:586 {
	name R4-12-47-2_node_62;
	phases "ABN";
	voltage_A 7216.878+0.0j;
	voltage_B -3608.439-6250.000j;
	nominal_voltage 7216.878;
}

object node:587 {
	name R4-12-47-2_node_63;
	phases "ABN";
	voltage_A 7216.878+0.0j;
	voltage_B -3608.439-6250.000j;
	nominal_voltage 7216.878;
}

object node:588 {
	name R4-12-47-2_node_64;
	phases "AN";
	voltage_A 7216.878+0.0j;
	nominal_voltage 7216.878;
}

object node:590 {
	name R4-12-47-2_node_65;
	phases "BN";
	voltage_B -3608.439-6250.000j;
	nominal_voltage 7216.878;
}

object node:591 {
	name R4-12-47-2_node_66;
	phases "BN";
	voltage_B -3608.439-6250.000j;
	nominal_voltage 7216.878;
}

object node:592 {
	name R4-12-47-2_node_67;
	phases "AN";
	voltage_A 7216.878+0.0j;
	nominal_voltage 7216.878;
}

object node:593 {
	name R4-12-47-2_node_68;
	phases "CN";
	voltage_C -3608.439+6250.000j;
	nominal_voltage 7216.878;
}

object node:596 {
	name R4-12-47-2_node_69;
	phases "BN";
	voltage_B -3608.439-6250.000j;
	nominal_voltage 7216.878;
}

object node:597 {
	name R4-12-47-2_node_70;
	phases "AN";
	voltage_A 7216.878+0.0j;
	nominal_voltage 7216.878;
}

object node:598 {
	name R4-12-47-2_node_71;
	phases "AN";
	voltage_A 7216.878+0.0j;
	nominal_voltage 7216.878;
}

object node:601 {
	name R4-12-47-2_node_72;
	phases "CN";
	voltage_C -3608.439+6250.000j;
	nominal_voltage 7216.878;
}

object node:600 {
	name R4-12-47-2_node_73;
	phases "CN";
	voltage_C -3608.439+6250.000j;
	nominal_voltage 7216.878;
}

object node:602 {
	name R4-12-47-2_node_74;
	phases "AN";
	voltage_A 7216.878+0.0j;
	nominal_voltage 7216.878;
}

object node:605 {
	name R4-12-47-2_node_75;
	phases "BN";
	voltage_B -3608.439-6250.000j;
	nominal_voltage 7216.878;
}

object node:608 {
	name R4-12-47-2_node_76;
	phases "AN";
	voltage_A 7216.878+0.0j;
	nominal_voltage 7216.878;
}

object node:607 {
	name R4-12-47-2_node_77;
	phases "BN";
	voltage_B -3608.439-6250.000j;
	nominal_voltage 7216.878;
}

object node:614 {
	name R4-12-47-2_node_78;
	phases "ABCN";
	voltage_A 7216.878+0.0j;
	voltage_B -3608.439-6250.000j;
	voltage_C -3608.439+6250.000j;
	nominal_voltage 7216.878;
}

object node:615 {
	name R4-12-47-2_node_79;
	phases "AN";
	voltage_A 7216.878+0.0j;
	nominal_voltage 7216.878;
}

object node:618 {
	name R4-12-47-2_node_80;
	phases "BN";
	voltage_B -3608.439-6250.000j;
	nominal_voltage 7216.878;
}

object node:617 {
	name R4-12-47-2_node_81;
	phases "ACN";
	voltage_A 7216.878+0.0j;
	voltage_C -3608.439+6250.000j;
	nominal_voltage 7216.878;
}

object node:619 {
	name R4-12-47-2_node_82;
	phases "BN";
	voltage_B -3608.439-6250.000j;
	nominal_voltage 7216.878;
}

object node:620 {
	name R4-12-47-2_node_83;
	phases "BN";
	voltage_B -3608.439-6250.000j;
	nominal_voltage 7216.878;
}

object node:622 {
	name R4-12-47-2_node_84;
	phases "CN";
	voltage_C -3608.439+6250.000j;
	nominal_voltage 7216.878;
}

object node:623 {
	name R4-12-47-2_node_85;
	phases "AN";
	voltage_A 7216.878+0.0j;
	nominal_voltage 7216.878;
}

object node:626 {
	name R4-12-47-2_node_86;
	phases "AN";
	voltage_A 7216.878+0.0j;
	nominal_voltage 7216.878;
}

object node:627 {
	name R4-12-47-2_node_87;
	phases "BN";
	voltage_B -3608.439-6250.000j;
	nominal_voltage 7216.878;
}

object node:628 {
	name R4-12-47-2_node_88;
	phases "BN";
	voltage_B -3608.439-6250.000j;
	nominal_voltage 7216.878;
}

object node:631 {
	name R4-12-47-2_node_89;
	phases "CN";
	voltage_C -3608.439+6250.000j;
	nominal_voltage 7216.878;
}

object node:632 {
	name R4-12-47-2_node_90;
	phases "AN";
	voltage_A 7216.878+0.0j;
	nominal_voltage 7216.878;
}

object node:634 {
	name R4-12-47-2_node_91;
	phases "AN";
	voltage_A 7216.878+0.0j;
	nominal_voltage 7216.878;
}

object node:636 {
	name R4-12-47-2_node_92;
	phases "BN";
	voltage_B -3608.439-6250.000j;
	nominal_voltage 7216.878;
}

object node:637 {
	name R4-12-47-2_node_93;
	phases "BN";
	voltage_B -3608.439-6250.000j;
	nominal_voltage 7216.878;
}

object node:639 {
	name R4-12-47-2_node_94;
	phases "AN";
	voltage_A 7216.878+0.0j;
	nominal_voltage 7216.878;
}

object node:640 {
	name R4-12-47-2_node_95;
	phases "CN";
	voltage_C -3608.439+6250.000j;
	nominal_voltage 7216.878;
}

object node:641 {
	name R4-12-47-2_node_96;
	phases "AN";
	voltage_A 7216.878+0.0j;
	nominal_voltage 7216.878;
}

object node:642 {
	name R4-12-47-2_node_97;
	phases "ABCN";
	voltage_A 7216.878+0.0j;
	voltage_B -3608.439-6250.000j;
	voltage_C -3608.439+6250.000j;
	nominal_voltage 7216.878;
}

object node:647 {
	name R4-12-47-2_node_98;
	phases "AN";
	voltage_A 7216.878+0.0j;
	nominal_voltage 7216.878;
}

object node:648 {
	name R4-12-47-2_node_99;
	phases "ABCN";
	voltage_A 7216.878+0.0j;
	voltage_B -3608.439-6250.000j;
	voltage_C -3608.439+6250.000j;
	nominal_voltage 7216.878;
}

object node:649 {
	name R4-12-47-2_node_100;
	phases "AN";
	voltage_A 7216.878+0.0j;
	nominal_voltage 7216.878;
}

object node:650 {
	name R4-12-47-2_node_101;
	phases "CN";
	voltage_C -3608.439+6250.000j;
	nominal_voltage 7216.878;
}

object node:651 {
	name R4-12-47-2_node_102;
	phases "AN";
	voltage_A 7216.878+0.0j;
	nominal_voltage 7216.878;
}

object node:652 {
	name R4-12-47-2_node_103;
	phases "AN";
	voltage_A 7216.878+0.0j;
	nominal_voltage 7216.878;
}

object node:653 {
	name R4-12-47-2_node_104;
	phases "BN";
	voltage_B -3608.439-6250.000j;
	nominal_voltage 7216.878;
}

object node:654 {
	name R4-12-47-2_node_105;
	phases "CN";
	voltage_C -3608.439+6250.000j;
	nominal_voltage 7216.878;
}

object node:656 {
	name R4-12-47-2_node_106;
	phases "BN";
	voltage_B -3608.439-6250.000j;
	nominal_voltage 7216.878;
}

object node:657 {
	name R4-12-47-2_node_107;
	phases "CN";
	voltage_C -3608.439+6250.000j;
	nominal_voltage 7216.878;
}

object node:659 {
	name R4-12-47-2_node_108;
	phases "BN";
	voltage_B -3608.439-6250.000j;
	nominal_voltage 7216.878;
}

object node:660 {
	name R4-12-47-2_node_109;
	phases "AN";
	voltage_A 7216.878+0.0j;
	nominal_voltage 7216.878;
}

object node:661 {
	name R4-12-47-2_node_110;
	phases "AN";
	voltage_A 7216.878+0.0j;
	nominal_voltage 7216.878;
}

object node:667 {
	name R4-12-47-2_node_111;
	phases "CN";
	voltage_C -3608.439+6250.000j;
	nominal_voltage 7216.878;
}

object node:668 {
	name R4-12-47-2_node_112;
	phases "ABCN";
	voltage_A 7216.878+0.0j;
	voltage_B -3608.439-6250.000j;
	voltage_C -3608.439+6250.000j;
	nominal_voltage 7216.878;
}

object node:670 {
	name R4-12-47-2_node_113;
	phases "AN";
	voltage_A 7216.878+0.0j;