// $Id: R4-12.47-1.glm 228 2009-05-27 18:16:10Z ychen $ 
//*********************************************

clock { 
	 timezone EST+5EDT;
	 timestamp '2000-01-01 0:00:00';
}

//*********************************************
// modules
module powerflow;


object fuse:1817 {
	name R4-12-47-1_fuse_1;
	phases "CN";
	from R4-12-47-1_node_337;
	to R4-12-47-1_node_394;
	current_limit 3000.0;
	status CLOSED;
}

object fuse:1821 {
	name R4-12-47-1_fuse_2;
	phases "CN";
	from R4-12-47-1_node_399;
	to R4-12-47-1_node_398;
	current_limit 3000.0;
	status CLOSED;
}

object fuse:1844 {
	name R4-12-47-1_fuse_3;
	phases "CN";
	from R4-12-47-1_node_321;
	to R4-12-47-1_node_421;
	current_limit 3000.0;
	status CLOSED;
}

object fuse:1854 {
	name R4-12-47-1_fuse_4;
	phases "ABCN";
	from R4-12-47-1_node_432;
	to R4-12-47-1_node_431;
	current_limit 3000.0;
	status CLOSED;
}

object fuse:1869 {
	name R4-12-47-1_fuse_5;
	phases "AN";
	from R4-12-47-1_node_441;
	to R4-12-47-1_node_446;
	current_limit 3000.0;
	status CLOSED;
}

object fuse:1875 {
	name R4-12-47-1_fuse_6;
	phases "AN";
	from R4-12-47-1_node_447;
	to R4-12-47-1_node_452;
	current_limit 3000.0;
	status CLOSED;
}

object fuse:1879 {
	name R4-12-47-1_fuse_7;
	phases "BN";
	from R4-12-47-1_node_454;
	to R4-12-47-1_node_455;
	current_limit 3000.0;
	status CLOSED;
}

object fuse:1880 {
	name R4-12-47-1_fuse_8;
	phases "CN";
	from R4-12-47-1_node_448;
	to R4-12-47-1_node_456;
	current_limit 3000.0;
	status CLOSED;
}

object fuse:1888 {
	name R4-12-47-1_fuse_9;
	phases "CN";
	from R4-12-47-1_node_463;
	to R4-12-47-1_node_464;
	current_limit 3000.0;
	status CLOSED;
}

object fuse:1893 {
	name R4-12-47-1_fuse_10;
	phases "BN";
	from R4-12-47-1_node_470;
	to R4-12-47-1_node_469;
	current_limit 3000.0;
	status CLOSED;
}

object fuse:1901 {
	name R4-12-47-1_fuse_11;
	phases "ACN";
	from R4-12-47-1_node_332;
	to R4-12-47-1_node_477;
	current_limit 3000.0;
	status CLOSED;
}

object fuse:1904 {
	name R4-12-47-1_fuse_12;
	phases "BN";
	from R4-12-47-1_node_481;
	to R4-12-47-1_node_480;
	current_limit 3000.0;
	status CLOSED;
}

object fuse:1908 {
	name R4-12-47-1_fuse_13;
	phases "BN";
	from R4-12-47-1_node_497;
	to R4-12-47-1_node_484;
	current_limit 3000.0;
	status CLOSED;
}

object fuse:1928 {
	name R4-12-47-1_fuse_14;
	phases "CN";
	from R4-12-47-1_node_503;
	to R4-12-47-1_node_504;
	current_limit 3000.0;
	status CLOSED;
}

object fuse:1932 {
	name R4-12-47-1_fuse_15;
	phases "BN";
	from R4-12-47-1_node_507;
	to R4-12-47-1_node_508;
	current_limit 3000.0;
	status CLOSED;
}

object fuse:1936 {
	name R4-12-47-1_fuse_16;
	phases "BN";
	from R4-12-47-1_node_511;
	to R4-12-47-1_node_512;
	current_limit 3000.0;
	status CLOSED;
}

object fuse:1938 {
	name R4-12-47-1_fuse_17;
	phases "ACN";
	from R4-12-47-1_node_316;
	to R4-12-47-1_node_514;
	current_limit 3000.0;
	status CLOSED;
}

object fuse:1944 {
	name R4-12-47-1_fuse_18;
	phases "AN";
	from R4-12-47-1_node_519;
	to R4-12-47-1_node_520;
	current_limit 3000.0;
	status CLOSED;
}

object fuse:1945 {
	name R4-12-47-1_fuse_19;
	phases "AN";
	from R4-12-47-1_node_433;
	to R4-12-47-1_node_521;
	current_limit 3000.0;
	status CLOSED;
}

object fuse:1949 {
	name R4-12-47-1_fuse_20;
	phases "CN";
	from R4-12-47-1_node_326;
	to R4-12-47-1_node_525;
	current_limit 3000.0;
	status CLOSED;
}

object fuse:1956 {
	name R4-12-47-1_fuse_21;
	phases "BN";
	from R4-12-47-1_node_382;
	to R4-12-47-1_node_532;
	current_limit 3000.0;
	status CLOSED;
}

object fuse:1959 {
	name R4-12-47-1_fuse_22;
	phases "AN";
	from R4-12-47-1_node_536;
	to R4-12-47-1_node_535;
	current_limit 3000.0;
	status CLOSED;
}

object fuse:1964 {
	name R4-12-47-1_fuse_23;
	phases "BN";
	from R4-12-47-1_node_541;
	to R4-12-47-1_node_540;
	current_limit 3000.0;
	status CLOSED;
}

object fuse:1968 {
	name R4-12-47-1_fuse_24;
	phases "CN";
	from R4-12-47-1_node_543;
	to R4-12-47-1_node_544;
	current_limit 3000.0;
	status CLOSED;
}

object fuse:1969 {
	name R4-12-47-1_fuse_25;
	phases "CN";
	from R4-12-47-1_node_542;
	to R4-12-47-1_node_545;
	current_limit 3000.0;
	status CLOSED;
}

object fuse:1981 {
	name R4-12-47-1_fuse_26;
	phases "BN";
	from R4-12-47-1_node_556;
	to R4-12-47-1_node_557;
	current_limit 3000.0;
	status CLOSED;
}

object fuse:1983 {
	name R4-12-47-1_fuse_27;
	phases "AN";
	from R4-12-47-1_node_560;
	to R4-12-47-1_node_559;
	current_limit 3000.0;
	status CLOSED;
}

object fuse:1988 {
	name R4-12-47-1_fuse_28;
	phases "AN";
	from R4-12-47-1_node_563;
	to R4-12-47-1_node_564;
	current_limit 3000.0;
	status CLOSED;
}

object fuse:1989 {
	name R4-12-47-1_fuse_29;
	phases "AN";
	from R4-12-47-1_node_566;
	to R4-12-47-1_node_565;
	current_limit 3000.0;
	status CLOSED;
}

object fuse:1993 {
	name R4-12-47-1_fuse_30;
	phases "AN";
	from R4-12-47-1_node_568;
	to R4-12-47-1_node_569;
	current_limit 3000.0;
	status CLOSED;
}

object fuse:1999 {
	name R4-12-47-1_fuse_31;
	phases "BN";
	from R4-12-47-1_node_311;
	to R4-12-47-1_node_5;
	current_limit 3000.0;
	status CLOSED;
}

object fuse:2003 {
	name R4-12-47-1_fuse_32;
	phases "ABN";
	from R4-12-47-1_node_313;
	to R4-12-47-1_node_9;
	current_limit 3000.0;
	status CLOSED;
}

object fuse:2017 {
	name R4-12-47-1_fuse_33;
	phases "BCN";
	from R4-12-47-1_node_317;
	to R4-12-47-1_node_23;
	current_limit 3000.0;
	status CLOSED;
}

object fuse:2022 {
	name R4-12-47-1_fuse_34;
	phases "BN";
	from R4-12-47-1_node_319;
	to R4-12-47-1_node_28;
	current_limit 3000.0;
	status CLOSED;
}

object fuse:2032 {
	name R4-12-47-1_fuse_35;
	phases "ABN";
	from R4-12-47-1_node_322;
	to R4-12-47-1_node_38;
	current_limit 3000.0;
	status CLOSED;
}

object fuse:2036 {
	name R4-12-47-1_fuse_36;
	phases "AN";
	from R4-12-47-1_node_324;
	to R4-12-47-1_node_42;
	current_limit 3000.0;
	status CLOSED;
}

object fuse:2039 {
	name R4-12-47-1_fuse_37;
	phases "ABCN";
	from R4-12-47-1_node_325;
	to R4-12-47-1_node_45;
	current_limit 3000.0;
	status CLOSED;
}

object fuse:2056 {
	name R4-12-47-1_fuse_38;
	phases "CN";
	from R4-12-47-1_node_333;
	to R4-12-47-1_node_62;
	current_limit 3000.0;
	status CLOSED;
}

object fuse:2066 {
	name R4-12-47-1_fuse_39;
	phases "BN";
	from R4-12-47-1_node_334;
	to R4-12-47-1_node_72;
	current_limit 3000.0;
	status CLOSED;
}

object fuse:2069 {
	name R4-12-47-1_fuse_40;
	phases "BN";
	from R4-12-47-1_node_408;
	to R4-12-47-1_node_75;
	current_limit 3000.0;
	status CLOSED;
}

object fuse:2071 {
	name R4-12-47-1_fuse_41;
	phases "CN";
	from R4-12-47-1_node_335;
	to R4-12-47-1_node_77;
	current_limit 3000.0;
	status CLOSED;
}

object fuse:2073 {
	name R4-12-47-1_fuse_42;
	phases "BN";
	from R4-12-47-1_node_336;
	to R4-12-47-1_node_79;
	current_limit 3000.0;
	status CLOSED;
}

object fuse:2084 {
	name R4-12-47-1_fuse_43;
	phases "CN";
	from R4-12-47-1_node_338;
	to R4-12-47-1_node_90;
	current_limit 3000.0;
	status CLOSED;
}

object fuse:2093 {
	name R4-12-47-1_fuse_44;
	phases "CN";
	from R4-12-47-1_node_341;
	to R4-12-47-1_node_99;
	current_limit 3000.0;
	status CLOSED;
}

object fuse:2106 {
	name R4-12-47-1_fuse_45;
	phases "CN";
	from R4-12-47-1_node_343;
	to R4-12-47-1_node_112;
	current_limit 3000.0;
	status CLOSED;
}

object fuse:2130 {
	name R4-12-47-1_fuse_46;
	phases "CN";
	from R4-12-47-1_node_348;
	to R4-12-47-1_node_136;
	current_limit 3000.0;
	status CLOSED;
}

object fuse:2153 {
	name R4-12-47-1_fuse_47;
	phases "ABCN";
	from R4-12-47-1_node_396;
	to R4-12-47-1_node_159;
	current_limit 3000.0;
	status CLOSED;
}

object fuse:2154 {
	name R4-12-47-1_fuse_48;
	phases "AN";
	from R4-12-47-1_node_349;
	to R4-12-47-1_node_160;
	current_limit 3000.0;
	status CLOSED;
}

object fuse:2159 {
	name R4-12-47-1_fuse_49;
	phases "ABCN";
	from R4-12-47-1_node_339;
	to R4-12-47-1_node_359;
	current_limit 3000.0;
	status CLOSED;
}

object fuse:2160 {
	name R4-12-47-1_fuse_50;
	phases "BN";
	from R4-12-47-1_node_351;
	to R4-12-47-1_node_360;
	current_limit 3000.0;
	status CLOSED;
}

object fuse:2161 {
	name R4-12-47-1_fuse_51;
	phases "BN";
	from R4-12-47-1_node_309;
	to R4-12-47-1_node_361;
	current_limit 3000.0;
	status CLOSED;
}

object fuse:2162 {
	name R4-12-47-1_fuse_52;
	phases "BN";
	from R4-12-47-1_node_350;
	to R4-12-47-1_node_362;
	current_limit 3000.0;
	status CLOSED;
}

object fuse:2171 {
	name R4-12-47-1_fuse_53;
	phases "AN";
	from R4-12-47-1_node_370;
	to R4-12-47-1_node_371;
	current_limit 3000.0;
	status CLOSED;
}

object fuse:2176 {
	name R4-12-47-1_fuse_54;
	phases "CN";
	from R4-12-47-1_node_378;
	to R4-12-47-1_node_376;
	current_limit 3000.0;
	status CLOSED;
}

object fuse:2181 {
	name R4-12-47-1_fuse_55;
	phases "CN";
	from R4-12-47-1_node_380;
	to R4-12-47-1_node_381;
	current_limit 3000.0;
	status CLOSED;
}

object fuse:2185 {
	name R4-12-47-1_fuse_56;
	phases "BN";
	from R4-12-47-1_node_435;
	to R4-12-47-1_node_385;
	current_limit 3000.0;
	status CLOSED;
}

object fuse:2187 {
	name R4-12-47-1_fuse_57;
	phases "BN";
	from R4-12-47-1_node_386;
	to R4-12-47-1_node_387;
	current_limit 3000.0;
	status CLOSED;
}

object fuse:2192 {
	name R4-12-47-1_fuse_58;
	phases "AN";
	from R4-12-47-1_node_352;
	to R4-12-47-1_node_168;
	current_limit 3000.0;
	status CLOSED;
}

object fuse:2205 {
	name R4-12-47-1_fuse_59;
	phases "BN";
	from R4-12-47-1_node_353;
	to R4-12-47-1_node_181;
	current_limit 3000.0;
	status CLOSED;
}

object fuse:2222 {
	name R4-12-47-1_fuse_60;
	phases "AN";
	from R4-12-47-1_node_461;
	to R4-12-47-1_node_198;
	current_limit 3000.0;
	status CLOSED;
}

object fuse:2234 {
	name R4-12-47-1_fuse_61;
	phases "AN";
	from R4-12-47-1_node_312;
	to R4-12-47-1_node_210;
	current_limit 3000.0;
	status CLOSED;
}

object fuse:2239 {
	name R4-12-47-1_fuse_62;
	phases "ABN";
	from R4-12-47-1_node_314;
	to R4-12-47-1_node_215;
	current_limit 3000.0;
	status CLOSED;
}

object fuse:2243 {
	name R4-12-47-1_fuse_63;
	phases "BN";
	from R4-12-47-1_node_412;
	to R4-12-47-1_node_219;
	current_limit 3000.0;
	status CLOSED;
}

object fuse:2249 {
	name R4-12-47-1_fuse_64;
	phases "CN";
	from R4-12-47-1_node_318;
	to R4-12-47-1_node_225;
	current_limit 3000.0;
	status CLOSED;
}

object fuse:2252 {
	name R4-12-47-1_fuse_65;
	phases "CN";
	from R4-12-47-1_node_320;
	to R4-12-47-1_node_228;
	current_limit 3000.0;
	status CLOSED;
}

object fuse:2255 {
	name R4-12-47-1_fuse_66;
	phases "BN";
	from R4-12-47-1_node_393;
	to R4-12-47-1_node_231;
	current_limit 3000.0;
	status CLOSED;
}

object fuse:2257 {
	name R4-12-47-1_fuse_67;
	phases "BN";
	from R4-12-47-1_node_331;
	to R4-12-47-1_node_233;
	current_limit 3000.0;
	status CLOSED;
}

object fuse:2259 {
	name R4-12-47-1_fuse_68;
	phases "CN";
	from R4-12-47-1_node_407;
	to R4-12-47-1_node_235;
	current_limit 3000.0;
	status CLOSED;
}

object fuse:2265 {
	name R4-12-47-1_fuse_69;
	phases "CN";
	from R4-12-47-1_node_502;
	to R4-12-47-1_node_241;
	current_limit 3000.0;
	status CLOSED;
}

object fuse:2275 {
	name R4-12-47-1_fuse_70;
	phases "ABCN";
	from R4-12-47-1_node_395;
	to R4-12-47-1_node_251;
	current_limit 3000.0;
	status CLOSED;
}

object fuse:2281 {
	name R4-12-47-1_fuse_71;
	phases "AN";
	from R4-12-47-1_node_342;
	to R4-12-47-1_node_257;
	current_limit 3000.0;
	status CLOSED;
}

object fuse:2283 {
	name R4-12-47-1_fuse_72;
	phases "ACN";
	from R4-12-47-1_node_344;
	to R4-12-47-1_node_259;
	current_limit 3000.0;
	status CLOSED;
}

object fuse:2291 {
	name R4-12-47-1_fuse_73;
	phases "BN";
	from R4-12-47-1_node_345;
	to R4-12-47-1_node_267;
	current_limit 3000.0;
	status CLOSED;
}

object fuse:2292 {
	name R4-12-47-1_fuse_74;
	phases "CN";
	from R4-12-47-1_node_346;
	to R4-12-47-1_node_268;
	current_limit 3000.0;
	status CLOSED;
}

object fuse:2295 {
	name R4-12-47-1_fuse_75;
	phases "AN";
	from R4-12-47-1_node_347;
	to R4-12-47-1_node_271;
	current_limit 3000.0;
	status CLOSED;
}

object fuse:2352 {
	name R4-12-47-1_fuse_76;
	phases "CN";
	from R4-12-47-1_node_327;
	to R4-12-47-1_node_328;
	current_limit 3000.0;
	status CLOSED;
}

object fuse:2380 {
	name R4-12-47-1_fuse_77;
	phases "CN";
	from R4-12-47-1_node_328;
	to R4-12-47-1_node_356;
	current_limit 3000.0;
	status CLOSED;
}

object fuse:2381 {
	name R4-12-47-1_fuse_78;
	phases "CN";
	from R4-12-47-1_node_329;
	to R4-12-47-1_node_357;
	current_limit 3000.0;
	status CLOSED;
}

object fuse:2382 {
	name R4-12-47-1_fuse_79;
	phases "AN";
	from R4-12-47-1_node_330;
	to R4-12-47-1_node_358;
	current_limit 3000.0;
	status CLOSED;
}


object line_configuration:1775 {
	conductor_B overhead_line_conductor:11;
	conductor_N overhead_line_conductor:11;
	spacing line_spacing:1774;
}

object line_configuration:1777 {
	conductor_C overhead_line_conductor:11;
	conductor_N overhead_line_conductor:11;
	spacing line_spacing:1776;
}

object line_configuration:1779 {
	conductor_A overhead_line_conductor:19;
	conductor_B overhead_line_conductor:19;
	conductor_C overhead_line_conductor:19;
	conductor_N overhead_line_conductor:19;
	spacing line_spacing:1778;
}

object line_configuration:1780 {
	conductor_A overhead_line_conductor:19;
	conductor_B overhead_line_conductor:19;
	conductor_C overhead_line_conductor:19;
	conductor_N overhead_line_conductor:19;
	spacing line_spacing:1778;
}

object line_configuration:1781 {
	conductor_A overhead_line_conductor:24;
	conductor_B overhead_line_conductor:24;
	conductor_C overhead_line_conductor:24;
	conductor_N overhead_line_conductor:24;
	spacing line_spacing:1778;
}

object line_configuration:1782 {
	conductor_A overhead_line_conductor:26;
	conductor_B overhead_line_conductor:26;
	conductor_C overhead_line_conductor:26;
	conductor_N overhead_line_conductor:26;
	spacing line_spacing:1778;
}

object line_configuration:1783 {
	conductor_A overhead_line_conductor:26;
	conductor_B overhead_line_conductor:26;
	conductor_C overhead_line_conductor:26;
	conductor_N overhead_line_conductor:26;
	spacing line_spacing:1778;
}

object line_configuration:1785 {
	conductor_A overhead_line_conductor:11;
	conductor_N overhead_line_conductor:11;
	spacing line_spacing:1784;
}

object line_configuration:1787 {
	conductor_A overhead_line_conductor:19;
	conductor_C overhead_line_conductor:19;
	conductor_N overhead_line_conductor:19;
	spacing line_spacing:1786;
}

object line_configuration:1788 {
	conductor_A overhead_line_conductor:30;
	conductor_B overhead_line_conductor:30;
	conductor_C overhead_line_conductor:30;
	conductor_N overhead_line_conductor:30;
	spacing line_spacing:1778;
}

object line_configuration:1790 {
	conductor_A overhead_line_conductor:11;
	conductor_B overhead_line_conductor:11;
	conductor_N overhead_line_conductor:11;
	spacing line_spacing:1789;
}

object line_configuration:1791 {
	conductor_A overhead_line_conductor:11;
	conductor_B overhead_line_conductor:11;
	conductor_C overhead_line_conductor:11;
	conductor_N overhead_line_conductor:11;
	spacing line_spacing:1778;
}

object line_configuration:1792 {
	conductor_A overhead_line_conductor:11;
	conductor_C overhead_line_conductor:11;
	conductor_N overhead_line_conductor:11;
	spacing line_spacing:1786;
}

object line_configuration:1794 {
	conductor_A underground_line_conductor:42;
	conductor_N underground_line_conductor:42;
	spacing line_spacing:1793;
}

object line_configuration:1796 {
	conductor_B overhead_line_conductor:11;
	conductor_C overhead_line_conductor:11;
	conductor_N overhead_line_conductor:11;
	spacing line_spacing:1795;
}

object line_configuration:1798 {
	conductor_C underground_line_conductor:42;
	conductor_N underground_line_conductor:42;
	spacing line_spacing:1797;
}

object line_configuration:1800 {
	conductor_B underground_line_conductor:42;
	conductor_N underground_line_conductor:42;
	spacing line_spacing:1799;
}

object line_configuration:1801 {
	conductor_B overhead_line_conductor:19;
	conductor_N overhead_line_conductor:19;
	spacing line_spacing:1774;
}

object line_configuration:1802 {
	conductor_C overhead_line_conductor:19;
	conductor_N overhead_line_conductor:19;
	spacing line_spacing:1776;
}

object line_configuration:1803 {
	conductor_A overhead_line_conductor:24;
	conductor_B overhead_line_conductor:24;
	conductor_C overhead_line_conductor:24;
	conductor_N overhead_line_conductor:24;
	spacing line_spacing:1778;
}

object line_configuration:1804 {
	conductor_A overhead_line_conductor:19;
	conductor_B overhead_line_conductor:19;
	conductor_N overhead_line_conductor:19;
	spacing line_spacing:1789;
}

object line_configuration:1805 {
	conductor_A overhead_line_conductor:11;
	conductor_N overhead_line_conductor:11;
	spacing line_spacing:1784;
}

object line_configuration:1807 {
	conductor_B overhead_line_conductor:11;
	conductor_C overhead_line_conductor:11;
	conductor_N overhead_line_conductor:11;
	spacing line_spacing:1806;
}

object line_configuration:1808 {
	conductor_A overhead_line_conductor:11;
	conductor_B overhead_line_conductor:11;
	conductor_C overhead_line_conductor:11;
	conductor_N overhead_line_conductor:11;
	spacing line_spacing:1778;
}

object line_configuration:1809 {
	conductor_C overhead_line_conductor:11;
	conductor_N overhead_line_conductor:11;
	spacing line_spacing:1776;
}

object line_configuration:1810 {
	conductor_A overhead_line_conductor:19;
	conductor_N overhead_line_conductor:19;
	spacing line_spacing:1784;
}

object line_configuration:1812 {
	conductor_A underground_line_conductor:42;
	conductor_B underground_line_conductor:42;
	conductor_C underground_line_conductor:42;
	conductor_N underground_line_conductor:42;
	spacing line_spacing:1811;
}

object line_configuration:1814 {
	conductor_A overhead_line_conductor:19;
	conductor_B overhead_line_conductor:19;
	conductor_C overhead_line_conductor:19;
	conductor_N overhead_line_conductor:19;
	spacing line_spacing:1813;
}

object line_configuration:1815 {
	conductor_B overhead_line_conductor:11;
	conductor_C overhead_line_conductor:11;
	conductor_N overhead_line_conductor:11;
	spacing line_spacing:1795;
}


object line_spacing:1774 {
	distance_BN 69.99999999996 in;
}

object line_spacing:1776 {
	distance_CN 69.99999999996 in;
}

object line_spacing:1778 {
	distance_AB 53.19999999996 in;
	distance_BC 53.19999999996 in;
	distance_AC 53.19999999996 in;
	distance_AN 80.49999999996 in;
	distance_BN 80.49999999996 in;
	distance_CN 80.49999999996 in;
}

object line_spacing:1784 {
	distance_AN 69.99999999996 in;
}

object line_spacing:1786 {
	distance_AC 87.99999999996 in;
	distance_AN 19.2 in;
	distance_CN 19.2 in;
}

object line_spacing:1789 {
	distance_AB 87.99999999996 in;
	distance_AN 19.2 in;
	distance_BN 19.2 in;
}

object line_spacing:1793 {
	distance_AN 360.0 in;
}

object line_spacing:1795 {
	distance_BC 87.99999999996 in;
	distance_BN 19.2 in;
	distance_CN 19.2 in;
}

object line_spacing:1797 {
	distance_CN 360.0 in;
}

object line_spacing:1799 {
	distance_BN 360.0 in;
}

object line_spacing:1806 {
	distance_BC 48.0 in;
	distance_BN 20.79999999996 in;
	distance_CN 20.79999999996 in;
}

object line_spacing:1811 {
	distance_AB 12.0 in;
	distance_BC 12.0 in;
	distance_AC 12.0 in;
	distance_AN 360.0 in;
	distance_BN 360.0 in;
	distance_CN 360.0 in;
}

object line_spacing:1813 {
	distance_AB 60.50000000004 in;
	distance_BC 60.50000000004 in;
	distance_AC 60.50000000004 in;
	distance_AN 114.99999999996 in;
	distance_BN 114.99999999996 in;
	distance_CN 114.99999999996 in;
}


object load {
	name R4-12-47-1_load_1;
	parent R4-12-47-1_meter_1;
	phases "ABCN";
	nominal_voltage 7967.434;
	voltage_A 7967.434+0.0j;
	voltage_B -3983.717-6900.000j;
	voltage_C -3983.717+6900.000j;
	constant_power_A 74202.592+38660.216j;
	constant_power_B 61610.322+33216.648j;
	constant_power_C 75349.610+38474.024j;
	load_class "U";
}

object load {
	name R4-12-47-1_load_2;
	parent R4-12-47-1_meter_2;
	phases "ABN";
	nominal_voltage 7967.434;
	voltage_A 7967.434+0.0j;
	voltage_B -3983.717-6900.000j;
	constant_power_A 11108.172+5787.457j;
	constant_power_B 9223.102+4972.552j;
	load_class "U";
}

object load {
	name R4-12-47-1_load_3;
	parent R4-12-47-1_meter_3;
	phases "ABCN";
	nominal_voltage 7967.434;
	voltage_A 7967.434+0.0j;
	voltage_B -3983.717-6900.000j;
	voltage_C -3983.717+6900.000j;
	constant_power_A 22216.345+11574.915j;
	constant_power_B 18446.204+9945.104j;
	constant_power_C 22559.764+11519.169j;
	load_class "U";
}

object load {
	name R4-12-47-1_load_4;
	parent R4-12-47-1_meter_4;
	phases "ABCN";
	nominal_voltage 7967.434;
	voltage_A 7967.434+0.0j;
	voltage_B -3983.717-6900.000j;
	voltage_C -3983.717+6900.000j;
	constant_power_A 11108.172+5787.457j;
	constant_power_B 9223.102+4972.552j;
	constant_power_C 8000.000+5000.000j;
	load_class "U";
}

object load {
	name R4-12-47-1_load_5;
	parent R4-12-47-1_meter_5;
	phases "ABCN";
	nominal_voltage 7967.434;
	voltage_A 7967.434+0.0j;
	voltage_B -3983.717-6900.000j;
	voltage_C -3983.717+6900.000j;
	constant_power_A 11108.172+5787.457j;
	constant_power_B 9223.102+4972.552j;
	constant_power_C 8000.000+5000.000j;
	load_class "U";
}

object load {
	name R4-12-47-1_load_6;
	parent R4-12-47-1_meter_6;
	phases "ABN";
	nominal_voltage 7967.434;
	voltage_A 7967.434+0.0j;
	voltage_B -3983.717-6900.000j;
	constant_power_A 11108.172+5787.457j;
	constant_power_B 9223.102+4972.552j;
	load_class "U";
}

object load {
	name R4-12-47-1_load_7;
	parent R4-12-47-1_meter_7;
	phases "ABCN";
	nominal_voltage 7967.434;
	voltage_A 7967.434+0.0j;
	voltage_B -3983.717-6900.000j;
	voltage_C -3983.717+6900.000j;
	constant_power_A 11108.172+5787.457j;
	constant_power_B 9223.102+4972.552j;
	constant_power_C 8000.000+5000.000j;
	load_class "U";
}

object load {
	name R4-12-47-1_load_8;
	parent R4-12-47-1_meter_8;
	phases "ABCN";
	nominal_voltage 7967.434;
	voltage_A 7967.434+0.0j;
	voltage_B -3983.717-6900.000j;
	voltage_C -3983.717+6900.000j;
	constant_power_A 44432.690+23149.830j;
	constant_power_B 36892.408+19890.209j;
	constant_power_C 45119.527+23038.338j;
	load_class "U";
}

object load {
	name R4-12-47-1_load_9;
	parent R4-12-47-1_meter_9;
	phases "ABCN";
	nominal_voltage 7967.434;
	voltage_A 7967.434+0.0j;
	voltage_B -3983.717-6900.000j;
	voltage_C -3983.717+6900.000j;
	constant_power_A 11108.172+5787.457j;
	constant_power_B 3689.241+1989.021j;
	constant_power_C 8000.000+5000.000j;
	load_class "U";
}

object load {
	name R4-12-47-1_load_10;
	parent R4-12-47-1_meter_10;
	phases "ABCN";
	nominal_voltage 7967.434;
	voltage_A 7967.434+0.0j;
	voltage_B -3983.717-6900.000j;
	voltage_C -3983.717+6900.000j;
	constant_power_A 74202.592+38660.216j;
	constant_power_B 61610.322+33216.648j;
	constant_power_C 75349.610+38474.024j;
	load_class "U";
}

object load {
	name R4-12-47-1_load_11;
	parent R4-12-47-1_meter_11;
	phases "ABCN";
	nominal_voltage 7967.434;
	voltage_A 7967.434+0.0j;
	voltage_B -3983.717-6900.000j;
	voltage_C -3983.717+6900.000j;
	constant_power_A 22216.345+11574.915j;
	constant_power_B 18446.204+9945.104j;
	constant_power_C 22559.764+11519.169j;
	load_class "U";
}

object load {
	name R4-12-47-1_load_12;
	parent R4-12-47-1_meter_12;
	phases "ABCN";
	nominal_voltage 7967.434;
	voltage_A 7967.434+0.0j;
	voltage_B -3983.717-6900.000j;
	voltage_C -3983.717+6900.000j;
	constant_power_A 44432.690+23149.830j;
	constant_power_B 61610.322+33216.648j;
	constant_power_C 45119.527+23038.338j;
	load_class "U";
}

object load {
	name R4-12-47-1_load_13;
	parent R4-12-47-1_meter_13;
	phases "ABCN";
	nominal_voltage 7967.434;
	voltage_A 7967.434+0.0j;
	voltage_B -3983.717-6900.000j;
	voltage_C -3983.717+6900.000j;
	constant_power_A 11108.172+5787.457j;
	constant_power_B 3689.241+1989.021j;
	constant_power_C 8000.000+5000.000j;
	load_class "U";
}

object load {
	name R4-12-47-1_load_14;
	parent R4-12-47-1_meter_14;
	phases "ABN";
	nominal_voltage 7967.434;
	voltage_A 7967.434+0.0j;
	voltage_B -3983.717-6900.000j;
	constant_power_A 11108.172+5787.457j;
	constant_power_B 3689.241+1989.021j;
	load_class "U";
}

object load {
	name R4-12-47-1_load_15;
	parent R4-12-47-1_meter_15;
	phases "ABCN";
	nominal_voltage 7967.434;
	voltage_A 7967.434+0.0j;
	voltage_B -3983.717-6900.000j;
	voltage_C -3983.717+6900.000j;
	constant_power_A 22216.345+11574.915j;
	constant_power_B 18446.204+9945.104j;
	constant_power_C 22559.764+11519.169j;
	load_class "U";
}

object load {
	name R4-12-47-1_load_16;
	parent R4-12-47-1_meter_16;
	phases "ABN";
	nominal_voltage 7967.434;
	voltage_A 7967.434+0.0j;
	voltage_B -3983.717-6900.000j;
	constant_power_A 11108.172+5787.457j;
	constant_power_B 9223.102+4972.552j;
	load_class "U";
}

object load {
	name R4-12-47-1_load_17;
	parent R4-12-47-1_meter_17;
	phases "ABCN";
	nominal_voltage 7967.434;
	voltage_A 7967.434+0.0j;
	voltage_B -3983.717-6900.000j;
	voltage_C -3983.717+6900.000j;
	constant_power_A 22216.345+11574.915j;
	constant_power_B 18446.204+9945.104j;
	constant_power_C 22559.764+11519.169j;
	load_class "U";
}


object meter:160 {
	name R4-12-47-1_meter_1;
	phases "ABCN";
	nominal_voltage 7967.434;
	voltage_A 7967.434+0.0j;
	voltage_B -3983.717-6900.000j;
	voltage_C -3983.717+6900.000j;
}

object meter:162 {
	name R4-12-47-1_meter_2;
	phases "ABN";
	nominal_voltage 7967.434;
	voltage_A 7967.434+0.0j;
	voltage_B -3983.717-6900.000j;
}

object meter:167 {
	name R4-12-47-1_meter_3;
	phases "ABCN";
	nominal_voltage 7967.434;
	voltage_A 7967.434+0.0j;
	voltage_B -3983.717-6900.000j;
	voltage_C -3983.717+6900.000j;
}

object meter:265 {
	name R4-12-47-1_meter_4;
	phases "ABCN";
	nominal_voltage 7967.434;
	voltage_A 7967.434+0.0j;
	voltage_B -3983.717-6900.000j;
	voltage_C -3983.717+6900.000j;
}

object meter:306 {
	name R4-12-47-1_meter_5;
	phases "ABCN";
	nominal_voltage 7967.434;
	voltage_A 7967.434+0.0j;
	voltage_B -3983.717-6900.000j;
	voltage_C -3983.717+6900.000j;
}

object meter:359 {
	name R4-12-47-1_meter_6;
	phases "ABN";
	nominal_voltage 7967.434;
	voltage_A 7967.434+0.0j;
	voltage_B -3983.717-6900.000j;
}

object meter:361 {
	name R4-12-47-1_meter_7;
	phases "ABCN";
	nominal_voltage 7967.434;
	voltage_A 7967.434+0.0j;
	voltage_B -3983.717-6900.000j;
	voltage_C -3983.717+6900.000j;
}

object meter:363 {
	name R4-12-47-1_meter_8;
	phases "ABCN";
	nominal_voltage 7967.434;
	voltage_A 7967.434+0.0j;
	voltage_B -3983.717-6900.000j;
	voltage_C -3983.717+6900.000j;
}

object meter:452 {
	name R4-12-47-1_meter_9;
	phases "ABCN";
	nominal_voltage 7967.434;
	voltage_A 7967.434+0.0j;
	voltage_B -3983.717-6900.000j;
	voltage_C -3983.717+6900.000j;
}

object meter:538 {
	name R4-12-47-1_meter_10;
	phases "ABCN";
	nominal_voltage 7967.434;
	voltage_A 7967.434+0.0j;
	voltage_B -3983.717-6900.000j;
	voltage_C -3983.717+6900.000j;
}

object meter:639 {
	name R4-12-47-1_meter_11;
	phases "ABCN";
	nominal_voltage 7967.434;
	voltage_A 7967.434+0.0j;
	voltage_B -3983.717-6900.000j;
	voltage_C -3983.717+6900.000j;
}

object meter:641 {
	name R4-12-47-1_meter_12;
	phases "ABCN";
	nominal_voltage 7967.434;
	voltage_A 7967.434+0.0j;
	voltage_B -3983.717-6900.000j;
	voltage_C -3983.717+6900.000j;
}

object meter:643 {
	name R4-12-47-1_meter_13;
	phases "ABCN";
	nominal_voltage 7967.434;
	voltage_A 7967.434+0.0j;
	voltage_B -3983.717-6900.000j;
	voltage_C -3983.717+6900.000j;
}

object meter:651 {
	name R4-12-47-1_meter_14;
	phases "ABN";
	nominal_voltage 7967.434;
	voltage_A 7967.434+0.0j;
	voltage_B -3983.717-6900.000j;
}

object meter:818 {
	name R4-12-47-1_meter_15;
	phases "ABCN";
	nominal_voltage 7967.434;
	voltage_A 7967.434+0.0j;
	voltage_B -3983.717-6900.000j;
	voltage_C -3983.717+6900.000j;
}

object meter:898 {
	name R4-12-47-1_meter_16;
	phases "ABN";
	nominal_voltage 7967.434;
	voltage_A 7967.434+0.0j;
	voltage_B -3983.717-6900.000j;
}

object meter:912 {
	name R4-12-47-1_meter_17;
	phases "ABCN";
	nominal_voltage 7967.434;
	voltage_A 7967.434+0.0j;
	voltage_B -3983.717-6900.000j;
	voltage_C -3983.717+6900.000j;
}

// Meter at feeder
object meter:925 {
	name R4-12-47-1_meter_18;
	phases "ABCN";
	nominal_voltage 7967.434;
	voltage_A 7967.434+0.0j;
	voltage_B -3983.717-6900.000j;
	voltage_C -3983.717+6900.000j;
}


object node:926 {
	name R4-12-47-1_node_1;
	phases "ABCN";
	nominal_voltage 7967.434;
	voltage_A 7967.434+0.0j;
	voltage_B -3983.717-6900.000j;
	voltage_C -3983.717+6900.000j;
}

object node:927 {
	name R4-12-47-1_node_2;
	phases "ABCN";
	nominal_voltage 7967.434;
	voltage_A 7967.434+0.0j;
	voltage_B -3983.717-6900.000j;
	voltage_C -3983.717+6900.000j;
}

object node:929 {
	name R4-12-47-1_node_3;
	phases "ABCN";
	nominal_voltage 7967.434;
	voltage_A 7967.434+0.0j;
	voltage_B -3983.717-6900.000j;
	voltage_C -3983.717+6900.000j;
}

object node:931 {
	name R4-12-47-1_node_4;
	phases "ABCN";
	nominal_voltage 7967.434;
	voltage_A 7967.434+0.0j;
	voltage_B -3983.717-6900.000j;
	voltage_C -3983.717+6900.000j;
}

object node:932 {
	name R4-12-47-1_node_5;