// $Id: R4-12.47-1.glm 1132 2008-11-18 22:36:10Z dchassin $ 
//*********************************************

clock { 
	 timezone EST+5EDT;
	 timestamp '2000-01-01 0:00:00';
}

//*********************************************
// modules
module powerflow;


object fuse:1817 {
	name R4-12-47-1_fuse_1;
	phases "CN";
	from node:1450;
	to node:1520;
	current_limit 3000.0;
	status CLOSED;
}

object fuse:1821 {
	name R4-12-47-1_fuse_2;
	phases "CN";
	from node:1525;
	to node:1524;
	current_limit 3000.0;
	status CLOSED;
}

object fuse:1844 {
	name R4-12-47-1_fuse_3;
	phases "CN";
	from node:1434;
	to node:1564;
	current_limit 3000.0;
	status CLOSED;
}

object fuse:1854 {
	name R4-12-47-1_fuse_4;
	phases "ABCN";
	from node:1579;
	to node:1577;
	current_limit 3000.0;
	status CLOSED;
}

object fuse:1869 {
	name R4-12-47-1_fuse_5;
	phases "AN";
	from node:1592;
	to node:1597;
	current_limit 3000.0;
	status CLOSED;
}

object fuse:1875 {
	name R4-12-47-1_fuse_6;
	phases "AN";
	from node:1598;
	to node:1606;
	current_limit 3000.0;
	status CLOSED;
}

object fuse:1879 {
	name R4-12-47-1_fuse_7;
	phases "BN";
	from node:1608;
	to node:1609;
	current_limit 3000.0;
	status CLOSED;
}

object fuse:1880 {
	name R4-12-47-1_fuse_8;
	phases "CN";
	from node:1599;
	to node:1610;
	current_limit 3000.0;
	status CLOSED;
}

object fuse:1888 {
	name R4-12-47-1_fuse_9;
	phases "CN";
	from node:1618;
	to node:1619;
	current_limit 3000.0;
	status CLOSED;
}

object fuse:1893 {
	name R4-12-47-1_fuse_10;
	phases "BN";
	from node:1627;
	to node:1626;
	current_limit 3000.0;
	status CLOSED;
}

object fuse:1901 {
	name R4-12-47-1_fuse_11;
	phases "ACN";
	from node:1445;
	to node:1637;
	current_limit 3000.0;
	status CLOSED;
}

object fuse:1904 {
	name R4-12-47-1_fuse_12;
	phases "BN";
	from node:1644;
	to node:1642;
	current_limit 3000.0;
	status CLOSED;
}

object fuse:1908 {
	name R4-12-47-1_fuse_13;
	phases "BN";
	from node:1671;
	to node:1649;
	current_limit 3000.0;
	status CLOSED;
}

object fuse:1928 {
	name R4-12-47-1_fuse_14;
	phases "CN";
	from node:1679;
	to node:1680;
	current_limit 3000.0;
	status CLOSED;
}

object fuse:1932 {
	name R4-12-47-1_fuse_15;
	phases "BN";
	from node:1684;
	to node:1685;
	current_limit 3000.0;
	status CLOSED;
}

object fuse:1936 {
	name R4-12-47-1_fuse_16;
	phases "BN";
	from node:1690;
	to node:1691;
	current_limit 3000.0;
	status CLOSED;
}

object fuse:1938 {
	name R4-12-47-1_fuse_17;
	phases "ACN";
	from node:1428;
	to node:1694;
	current_limit 3000.0;
	status CLOSED;
}

object fuse:1944 {
	name R4-12-47-1_fuse_18;
	phases "AN";
	from node:1702;
	to node:1703;
	current_limit 3000.0;
	status CLOSED;
}

object fuse:1945 {
	name R4-12-47-1_fuse_19;
	phases "AN";
	from node:1580;
	to node:1704;
	current_limit 3000.0;
	status CLOSED;
}

object fuse:1949 {
	name R4-12-47-1_fuse_20;
	phases "CN";
	from node:1439;
	to node:1711;
	current_limit 3000.0;
	status CLOSED;
}

object fuse:1956 {
	name R4-12-47-1_fuse_21;
	phases "BN";
	from node:1503;
	to node:1723;
	current_limit 3000.0;
	status CLOSED;
}

object fuse:1959 {
	name R4-12-47-1_fuse_22;
	phases "AN";
	from node:1729;
	to node:1728;
	current_limit 3000.0;
	status CLOSED;
}

object fuse:1964 {
	name R4-12-47-1_fuse_23;
	phases "BN";
	from node:1736;
	to node:1735;
	current_limit 3000.0;
	status CLOSED;
}

object fuse:1968 {
	name R4-12-47-1_fuse_24;
	phases "CN";
	from node:1738;
	to node:1739;
	current_limit 3000.0;
	status CLOSED;
}

object fuse:1969 {
	name R4-12-47-1_fuse_25;
	phases "CN";
	from node:1737;
	to node:1740;
	current_limit 3000.0;
	status CLOSED;
}

object fuse:1981 {
	name R4-12-47-1_fuse_26;
	phases "BN";
	from node:1752;
	to node:1754;
	current_limit 3000.0;
	status CLOSED;
}

object fuse:1983 {
	name R4-12-47-1_fuse_27;
	phases "AN";
	from node:1759;
	to node:1758;
	current_limit 3000.0;
	status CLOSED;
}

object fuse:1988 {
	name R4-12-47-1_fuse_28;
	phases "AN";
	from node:1763;
	to node:1764;
	current_limit 3000.0;
	status CLOSED;
}

object fuse:1989 {
	name R4-12-47-1_fuse_29;
	phases "AN";
	from node:1767;
	to node:1766;
	current_limit 3000.0;
	status CLOSED;
}

object fuse:1993 {
	name R4-12-47-1_fuse_30;
	phases "AN";
	from node:1770;
	to node:1771;
	current_limit 3000.0;
	status CLOSED;
}

object fuse:1999 {
	name R4-12-47-1_fuse_31;
	phases "BN";
	from node:1423;
	to node:932;
	current_limit 3000.0;
	status CLOSED;
}

object fuse:2003 {
	name R4-12-47-1_fuse_32;
	phases "ABN";
	from node:1425;
	to node:940;
	current_limit 3000.0;
	status CLOSED;
}

object fuse:2017 {
	name R4-12-47-1_fuse_33;
	phases "BCN";
	from node:1430;
	to node:961;
	current_limit 3000.0;
	status CLOSED;
}

object fuse:2022 {
	name R4-12-47-1_fuse_34;
	phases "BN";
	from node:1432;
	to node:967;
	current_limit 3000.0;
	status CLOSED;
}

object fuse:2032 {
	name R4-12-47-1_fuse_35;
	phases "ABN";
	from node:1435;
	to node:980;
	current_limit 3000.0;
	status CLOSED;
}

object fuse:2036 {
	name R4-12-47-1_fuse_36;
	phases "AN";
	from node:1437;
	to node:985;
	current_limit 3000.0;
	status CLOSED;
}

object fuse:2039 {
	name R4-12-47-1_fuse_37;
	phases "ABCN";
	from node:1438;
	to node:991;
	current_limit 3000.0;
	status CLOSED;
}

object fuse:2056 {
	name R4-12-47-1_fuse_38;
	phases "CN";
	from node:1446;
	to node:1019;
	current_limit 3000.0;
	status CLOSED;
}

object fuse:2066 {
	name R4-12-47-1_fuse_39;
	phases "BN";
	from node:1447;
	to node:1037;
	current_limit 3000.0;
	status CLOSED;
}

object fuse:2069 {
	name R4-12-47-1_fuse_40;
	phases "BN";
	from node:1541;
	to node:1042;
	current_limit 3000.0;
	status CLOSED;
}

object fuse:2071 {
	name R4-12-47-1_fuse_41;
	phases "CN";
	from node:1448;
	to node:1044;
	current_limit 3000.0;
	status CLOSED;
}

object fuse:2073 {
	name R4-12-47-1_fuse_42;
	phases "BN";
	from node:1449;
	to node:1047;
	current_limit 3000.0;
	status CLOSED;
}

object fuse:2084 {
	name R4-12-47-1_fuse_43;
	phases "CN";
	from node:1451;
	to node:1060;
	current_limit 3000.0;
	status CLOSED;
}

object fuse:2093 {
	name R4-12-47-1_fuse_44;
	phases "CN";
	from node:1455;
	to node:1073;
	current_limit 3000.0;
	status CLOSED;
}

object fuse:2106 {
	name R4-12-47-1_fuse_45;
	phases "CN";
	from node:1457;
	to node:1096;
	current_limit 3000.0;
	status CLOSED;
}

object fuse:2130 {
	name R4-12-47-1_fuse_46;
	phases "CN";
	from node:1462;
	to node:1130;
	current_limit 3000.0;
	status CLOSED;
}

object fuse:2153 {
	name R4-12-47-1_fuse_47;
	phases "ABCN";
	from node:1522;
	to node:1166;
	current_limit 3000.0;
	status CLOSED;
}

object fuse:2154 {
	name R4-12-47-1_fuse_48;
	phases "AN";
	from node:1463;
	to node:1167;
	current_limit 3000.0;
	status CLOSED;
}

object fuse:2159 {
	name R4-12-47-1_fuse_49;
	phases "ABCN";
	from node:1453;
	to node:1475;
	current_limit 3000.0;
	status CLOSED;
}

object fuse:2160 {
	name R4-12-47-1_fuse_50;
	phases "BN";
	from node:1466;
	to node:1476;
	current_limit 3000.0;
	status CLOSED;
}

object fuse:2161 {
	name R4-12-47-1_fuse_51;
	phases "BN";
	from node:1421;
	to node:1477;
	current_limit 3000.0;
	status CLOSED;
}

object fuse:2162 {
	name R4-12-47-1_fuse_52;
	phases "BN";
	from node:1464;
	to node:1478;
	current_limit 3000.0;
	status CLOSED;
}

object fuse:2171 {
	name R4-12-47-1_fuse_53;
	phases "AN";
	from node:1488;
	to node:1489;
	current_limit 3000.0;
	status CLOSED;
}

object fuse:2176 {
	name R4-12-47-1_fuse_54;
	phases "CN";
	from node:1498;
	to node:1496;
	current_limit 3000.0;
	status CLOSED;
}

object fuse:2181 {
	name R4-12-47-1_fuse_55;
	phases "CN";
	from node:1500;
	to node:1501;
	current_limit 3000.0;
	status CLOSED;
}

object fuse:2185 {
	name R4-12-47-1_fuse_56;
	phases "BN";
	from node:1582;
	to node:1508;
	current_limit 3000.0;
	status CLOSED;
}

object fuse:2187 {
	name R4-12-47-1_fuse_57;
	phases "BN";
	from node:1509;
	to node:1510;
	current_limit 3000.0;
	status CLOSED;
}

object fuse:2192 {
	name R4-12-47-1_fuse_58;
	phases "AN";
	from node:1467;
	to node:1177;
	current_limit 3000.0;
	status CLOSED;
}

object fuse:2205 {
	name R4-12-47-1_fuse_59;
	phases "BN";
	from node:1468;
	to node:1199;
	current_limit 3000.0;
	status CLOSED;
}

object fuse:2222 {
	name R4-12-47-1_fuse_60;
	phases "AN";
	from node:1616;
	to node:1224;
	current_limit 3000.0;
	status CLOSED;
}

object fuse:2234 {
	name R4-12-47-1_fuse_61;
	phases "AN";
	from node:1424;
	to node:1245;
	current_limit 3000.0;
	status CLOSED;
}

object fuse:2239 {
	name R4-12-47-1_fuse_62;
	phases "ABN";
	from node:1426;
	to node:1255;
	current_limit 3000.0;
	status CLOSED;
}

object fuse:2243 {
	name R4-12-47-1_fuse_63;
	phases "BN";
	from node:1547;
	to node:1261;
	current_limit 3000.0;
	status CLOSED;
}

object fuse:2249 {
	name R4-12-47-1_fuse_64;
	phases "CN";
	from node:1431;
	to node:1271;
	current_limit 3000.0;
	status CLOSED;
}

object fuse:2252 {
	name R4-12-47-1_fuse_65;
	phases "CN";
	from node:1433;
	to node:1275;
	current_limit 3000.0;
	status CLOSED;
}

object fuse:2255 {
	name R4-12-47-1_fuse_66;
	phases "BN";
	from node:1519;
	to node:1278;
	current_limit 3000.0;
	status CLOSED;
}

object fuse:2257 {
	name R4-12-47-1_fuse_67;
	phases "BN";
	from node:1444;
	to node:1283;
	current_limit 3000.0;
	status CLOSED;
}

object fuse:2259 {
	name R4-12-47-1_fuse_68;
	phases "CN";
	from node:1540;
	to node:1286;
	current_limit 3000.0;
	status CLOSED;
}

object fuse:2265 {
	name R4-12-47-1_fuse_69;
	phases "CN";
	from node:1678;
	to node:1298;
	current_limit 3000.0;
	status CLOSED;
}

object fuse:2275 {
	name R4-12-47-1_fuse_70;
	phases "ABCN";
	from node:1521;
	to node:1315;
	current_limit 3000.0;
	status CLOSED;
}

object fuse:2281 {
	name R4-12-47-1_fuse_71;
	phases "AN";
	from node:1456;
	to node:1327;
	current_limit 3000.0;
	status CLOSED;
}

object fuse:2283 {
	name R4-12-47-1_fuse_72;
	phases "ACN";
	from node:1458;
	to node:1329;
	current_limit 3000.0;
	status CLOSED;
}

object fuse:2291 {
	name R4-12-47-1_fuse_73;
	phases "BN";
	from node:1459;
	to node:1343;
	current_limit 3000.0;
	status CLOSED;
}

object fuse:2292 {
	name R4-12-47-1_fuse_74;
	phases "CN";
	from node:1460;
	to node:1345;
	current_limit 3000.0;
	status CLOSED;
}

object fuse:2295 {
	name R4-12-47-1_fuse_75;
	phases "AN";
	from node:1461;
	to node:1351;
	current_limit 3000.0;
	status CLOSED;
}

object fuse:2352 {
	name R4-12-47-1_fuse_76;
	phases "CN";
	from node:1440;
	to node:1441;
	current_limit 3000.0;
	status CLOSED;
}

object fuse:2380 {
	name R4-12-47-1_fuse_77;
	phases "CN";
	from node:1441;
	to node:1472;
	current_limit 3000.0;
	status CLOSED;
}

object fuse:2381 {
	name R4-12-47-1_fuse_78;
	phases "CN";
	from node:1442;
	to node:1473;
	current_limit 3000.0;
	status CLOSED;
}

object fuse:2382 {
	name R4-12-47-1_fuse_79;
	phases "AN";
	from node:1443;
	to node:1474;
	current_limit 3000.0;
	status CLOSED;
}


object line_configuration:1775 {
	conductor_B overhead_line_conductor:11;
	conductor_N overhead_line_conductor:11;
	spacing line_spacing:1774;
}

object line_configuration:1777 {
	conductor_C overhead_line_conductor:11;
	conductor_N overhead_line_conductor:11;
	spacing line_spacing:1776;
}

object line_configuration:1779 {
	conductor_A overhead_line_conductor:19;
	conductor_B overhead_line_conductor:19;
	conductor_C overhead_line_conductor:19;
	conductor_N overhead_line_conductor:19;
	spacing line_spacing:1778;
}

object line_configuration:1780 {
	conductor_A overhead_line_conductor:19;
	conductor_B overhead_line_conductor:19;
	conductor_C overhead_line_conductor:19;
	conductor_N overhead_line_conductor:19;
	spacing line_spacing:1778;
}

object line_configuration:1781 {
	conductor_A overhead_line_conductor:24;
	conductor_B overhead_line_conductor:24;
	conductor_C overhead_line_conductor:24;
	conductor_N overhead_line_conductor:24;
	spacing line_spacing:1778;
}

object line_configuration:1782 {
	conductor_A overhead_line_conductor:26;
	conductor_B overhead_line_conductor:26;
	conductor_C overhead_line_conductor:26;
	conductor_N overhead_line_conductor:26;
	spacing line_spacing:1778;
}

object line_configuration:1783 {
	conductor_A overhead_line_conductor:26;
	conductor_B overhead_line_conductor:26;
	conductor_C overhead_line_conductor:26;
	conductor_N overhead_line_conductor:26;
	spacing line_spacing:1778;
}

object line_configuration:1785 {
	conductor_A overhead_line_conductor:11;
	conductor_N overhead_line_conductor:11;
	spacing line_spacing:1784;
}

object line_configuration:1787 {
	conductor_A overhead_line_conductor:19;
	conductor_C overhead_line_conductor:19;
	conductor_N overhead_line_conductor:19;
	spacing line_spacing:1786;
}

object line_configuration:1788 {
	conductor_A overhead_line_conductor:30;
	conductor_B overhead_line_conductor:30;
	conductor_C overhead_line_conductor:30;
	conductor_N overhead_line_conductor:30;
	spacing line_spacing:1778;
}

object line_configuration:1790 {
	conductor_A overhead_line_conductor:11;
	conductor_B overhead_line_conductor:11;
	conductor_N overhead_line_conductor:11;
	spacing line_spacing:1789;
}

object line_configuration:1791 {
	conductor_A overhead_line_conductor:11;
	conductor_B overhead_line_conductor:11;
	conductor_C overhead_line_conductor:11;
	conductor_N overhead_line_conductor:11;
	spacing line_spacing:1778;
}

object line_configuration:1792 {
	conductor_A overhead_line_conductor:11;
	conductor_C overhead_line_conductor:11;
	conductor_N overhead_line_conductor:11;
	spacing line_spacing:1786;
}

object line_configuration:1794 {
	conductor_A underground_line_conductor:42;
	conductor_N underground_line_conductor:42;
	spacing line_spacing:1793;
}

object line_configuration:1796 {
	conductor_B overhead_line_conductor:11;
	conductor_C overhead_line_conductor:11;
	conductor_N overhead_line_conductor:11;
	spacing line_spacing:1795;
}

object line_configuration:1798 {
	conductor_C underground_line_conductor:42;
	conductor_N underground_line_conductor:42;
	spacing line_spacing:1797;
}

object line_configuration:1800 {
	conductor_B underground_line_conductor:42;
	conductor_N underground_line_conductor:42;
	spacing line_spacing:1799;
}

object line_configuration:1801 {
	conductor_B overhead_line_conductor:19;
	conductor_N overhead_line_conductor:19;
	spacing line_spacing:1774;
}

object line_configuration:1802 {
	conductor_C overhead_line_conductor:19;
	conductor_N overhead_line_conductor:19;
	spacing line_spacing:1776;
}

object line_configuration:1803 {
	conductor_A overhead_line_conductor:24;
	conductor_B overhead_line_conductor:24;
	conductor_C overhead_line_conductor:24;
	conductor_N overhead_line_conductor:24;
	spacing line_spacing:1778;
}

object line_configuration:1804 {
	conductor_A overhead_line_conductor:19;
	conductor_B overhead_line_conductor:19;
	conductor_N overhead_line_conductor:19;
	spacing line_spacing:1789;
}

object line_configuration:1805 {
	conductor_A overhead_line_conductor:11;
	conductor_N overhead_line_conductor:11;
	spacing line_spacing:1784;
}

object line_configuration:1807 {
	conductor_B overhead_line_conductor:11;
	conductor_C overhead_line_conductor:11;
	conductor_N overhead_line_conductor:11;
	spacing line_spacing:1806;
}

object line_configuration:1808 {
	conductor_A overhead_line_conductor:11;
	conductor_B overhead_line_conductor:11;
	conductor_C overhead_line_conductor:11;
	conductor_N overhead_line_conductor:11;
	spacing line_spacing:1778;
}

object line_configuration:1809 {
	conductor_C overhead_line_conductor:11;
	conductor_N overhead_line_conductor:11;
	spacing line_spacing:1776;
}

object line_configuration:1810 {
	conductor_A overhead_line_conductor:19;
	conductor_N overhead_line_conductor:19;
	spacing line_spacing:1784;
}

object line_configuration:1812 {
	conductor_A underground_line_conductor:42;
	conductor_B underground_line_conductor:42;
	conductor_C underground_line_conductor:42;
	conductor_N underground_line_conductor:42;
	spacing line_spacing:1811;
}

object line_configuration:1814 {
	conductor_A overhead_line_conductor:19;
	conductor_B overhead_line_conductor:19;
	conductor_C overhead_line_conductor:19;
	conductor_N overhead_line_conductor:19;
	spacing line_spacing:1813;
}

object line_configuration:1815 {
	conductor_B overhead_line_conductor:11;
	conductor_C overhead_line_conductor:11;
	conductor_N overhead_line_conductor:11;
	spacing line_spacing:1795;
}


object line_spacing:1774 {
	distance_BN 69.99999999996 in;
}

object line_spacing:1776 {
	distance_CN 69.99999999996 in;
}

object line_spacing:1778 {
	distance_AB 53.19999999996 in;
	distance_BC 53.19999999996 in;
	distance_AC 53.19999999996 in;
	distance_AN 80.49999999996 in;
	distance_BN 80.49999999996 in;
	distance_CN 80.49999999996 in;
}

object line_spacing:1784 {
	distance_AN 69.99999999996 in;
}

object line_spacing:1786 {
	distance_AC 87.99999999996 in;
	distance_AN 19.2 in;
	distance_CN 19.2 in;
}

object line_spacing:1789 {
	distance_AB 87.99999999996 in;
	distance_AN 19.2 in;
	distance_BN 19.2 in;
}

object line_spacing:1793 {
	distance_AN 360.0 in;
}

object line_spacing:1795 {
	distance_BC 87.99999999996 in;
	distance_BN 19.2 in;
	distance_CN 19.2 in;
}

object line_spacing:1797 {
	distance_CN 360.0 in;
}

object line_spacing:1799 {
	distance_BN 360.0 in;
}

object line_spacing:1806 {
	distance_BC 48.0 in;
	distance_BN 20.79999999996 in;
	distance_CN 20.79999999996 in;
}

object line_spacing:1811 {
	distance_AB 12.0 in;
	distance_BC 12.0 in;
	distance_AC 12.0 in;
	distance_AN 360.0 in;
	distance_BN 360.0 in;
	distance_CN 360.0 in;
}

object line_spacing:1813 {
	distance_AB 60.50000000004 in;
	distance_BC 60.50000000004 in;
	distance_AC 60.50000000004 in;
	distance_AN 114.99999999996 in;
	distance_BN 114.99999999996 in;
	distance_CN 114.99999999996 in;
}


object load {
	name R4-12-47-1_load_1;
	parent R4-12-47-1_meter_1;
	phases "ABCN";
	nominal_voltage 7967.434;
	voltage_A 7967.434+0.0j;
	voltage_B -3983.717-6900.000j;
	voltage_C -3983.717+6900.000j;
	constant_power_A 74202.592+38660.216j;
	constant_power_B 61610.322+33216.648j;
	constant_power_C 75349.610+38474.024j;
	load_class "U";
}

object load {
	name R4-12-47-1_load_2;
	parent R4-12-47-1_meter_2;
	phases "ABCN";
	nominal_voltage 7967.434;
	voltage_A 7967.434+0.0j;
	voltage_B -3983.717-6900.000j;
	voltage_C -3983.717+6900.000j;
	constant_power_A 11108.172+5787.457j;
	constant_power_B 9223.102+4972.552j;
	constant_power_C 0.000+0.000j;
	load_class "U";
}

object load {
	name R4-12-47-1_load_3;
	parent R4-12-47-1_meter_3;
	phases "ABCN";
	nominal_voltage 7967.434;
	voltage_A 7967.434+0.0j;
	voltage_B -3983.717-6900.000j;
	voltage_C -3983.717+6900.000j;
	constant_power_A 22216.345+11574.915j;
	constant_power_B 18446.204+9945.104j;
	constant_power_C 22559.764+11519.169j;
	load_class "U";
}

object load {
	name R4-12-47-1_load_4;
	parent R4-12-47-1_meter_4;
	phases "ABCN";
	nominal_voltage 7967.434;
	voltage_A 7967.434+0.0j;
	voltage_B -3983.717-6900.000j;
	voltage_C -3983.717+6900.000j;
	constant_power_A 11108.172+5787.457j;
	constant_power_B 9223.102+4972.552j;
	constant_power_C 0.000+0.000j;
	load_class "U";
}

object load {
	name R4-12-47-1_load_5;
	parent R4-12-47-1_meter_5;
	phases "ABCN";
	nominal_voltage 7967.434;
	voltage_A 7967.434+0.0j;
	voltage_B -3983.717-6900.000j;
	voltage_C -3983.717+6900.000j;
	constant_power_A 11108.172+5787.457j;
	constant_power_B 9223.102+4972.552j;
	constant_power_C 0.000+0.000j;
	load_class "U";
}

object load {
	name R4-12-47-1_load_6;
	parent R4-12-47-1_meter_6;
	phases "ABCN";
	nominal_voltage 7967.434;
	voltage_A 7967.434+0.0j;
	voltage_B -3983.717-6900.000j;
	voltage_C -3983.717+6900.000j;
	constant_power_A 11108.172+5787.457j;
	constant_power_B 9223.102+4972.552j;
	constant_power_C 0.000+0.000j;
	load_class "U";
}

object load {
	name R4-12-47-1_load_7;
	parent R4-12-47-1_meter_7;
	phases "ABCN";
	nominal_voltage 7967.434;
	voltage_A 7967.434+0.0j;
	voltage_B -3983.717-6900.000j;
	voltage_C -3983.717+6900.000j;
	constant_power_A 11108.172+5787.457j;
	constant_power_B 9223.102+4972.552j;
	constant_power_C 0.000+0.000j;
	load_class "U";
}

object load {
	name R4-12-47-1_load_8;
	parent R4-12-47-1_meter_8;
	phases "ABCN";
	nominal_voltage 7967.434;
	voltage_A 7967.434+0.0j;
	voltage_B -3983.717-6900.000j;
	voltage_C -3983.717+6900.000j;
	constant_power_A 44432.690+23149.830j;
	constant_power_B 36892.408+19890.209j;
	constant_power_C 45119.527+23038.338j;
	load_class "U";
}

object load {
	name R4-12-47-1_load_9;
	parent R4-12-47-1_meter_9;
	phases "ABCN";
	nominal_voltage 7967.434;
	voltage_A 7967.434+0.0j;
	voltage_B -3983.717-6900.000j;
	voltage_C -3983.717+6900.000j;
	constant_power_A 11108.172+5787.457j;
	constant_power_B 3689.241+1989.021j;
	constant_power_C 0.000+0.000j;
	load_class "U";
}

object load {
	name R4-12-47-1_load_10;
	parent R4-12-47-1_meter_10;
	phases "ABCN";
	nominal_voltage 7967.434;
	voltage_A 7967.434+0.0j;
	voltage_B -3983.717-6900.000j;
	voltage_C -3983.717+6900.000j;
	constant_power_A 74202.592+38660.216j;
	constant_power_B 61610.322+33216.648j;
	constant_power_C 75349.610+38474.024j;
	load_class "U";
}

object load {
	name R4-12-47-1_load_11;
	parent R4-12-47-1_meter_11;
	phases "ABCN";
	nominal_voltage 7967.434;
	voltage_A 7967.434+0.0j;
	voltage_B -3983.717-6900.000j;
	voltage_C -3983.717+6900.000j;
	constant_power_A 22216.345+11574.915j;
	constant_power_B 18446.204+9945.104j;
	constant_power_C 22559.764+11519.169j;
	load_class "U";
}

object load {
	name R4-12-47-1_load_12;
	parent R4-12-47-1_meter_12;
	phases "ABCN";
	nominal_voltage 7967.434;
	voltage_A 7967.434+0.0j;
	voltage_B -3983.717-6900.000j;
	voltage_C -3983.717+6900.000j;
	constant_power_A 44432.690+23149.830j;
	constant_power_B 61610.322+33216.648j;
	constant_power_C 45119.527+23038.338j;
	load_class "U";
}

object load {
	name R4-12-47-1_load_13;
	parent R4-12-47-1_meter_13;
	phases "ABCN";
	nominal_voltage 7967.434;
	voltage_A 7967.434+0.0j;
	voltage_B -3983.717-6900.000j;
	voltage_C -3983.717+6900.000j;
	constant_power_A 11108.172+5787.457j;
	constant_power_B 3689.241+1989.021j;
	constant_power_C 0.000+0.000j;
	load_class "U";
}

object load {
	name R4-12-47-1_load_14;
	parent R4-12-47-1_meter_14;
	phases "ABCN";
	nominal_voltage 7967.434;
	voltage_A 7967.434+0.0j;
	voltage_B -3983.717-6900.000j;
	voltage_C -3983.717+6900.000j;
	constant_power_A 11108.172+5787.457j;
	constant_power_B 3689.241+1989.021j;
	constant_power_C 0.000+0.000j;
	load_class "U";
}

object load {
	name R4-12-47-1_load_15;
	parent R4-12-47-1_meter_15;
	phases "ABCN";
	nominal_voltage 7967.434;
	voltage_A 7967.434+0.0j;
	voltage_B -3983.717-6900.000j;
	voltage_C -3983.717+6900.000j;
	constant_power_A 22216.345+11574.915j;
	constant_power_B 18446.204+9945.104j;
	constant_power_C 22559.764+11519.169j;
	load_class "U";
}

object load {
	name R4-12-47-1_load_16;
	parent R4-12-47-1_meter_16;
	phases "ABCN";
	nominal_voltage 7967.434;
	voltage_A 7967.434+0.0j;
	voltage_B -3983.717-6900.000j;
	voltage_C -3983.717+6900.000j;
	constant_power_A 11108.172+5787.457j;
	constant_power_B 9223.102+4972.552j;
	constant_power_C 0.000+0.000j;
	load_class "U";
}

object load {
	name R4-12-47-1_load_17;
	parent R4-12-47-1_meter_17;
	phases "ABCN";
	nominal_voltage 7967.434;
	voltage_A 7967.434+0.0j;
	voltage_B -3983.717-6900.000j;
	voltage_C -3983.717+6900.000j;
	constant_power_A 22216.345+11574.915j;
	constant_power_B 18446.204+9945.104j;
	constant_power_C 22559.764+11519.169j;
	load_class "U";
}


object meter:160 {
	name R4-12-47-1_meter_1;
	phases "ABCN";
	nominal_voltage 7967.434;
	voltage_A 7967.434+0.0j;
	voltage_B -3983.717-6900.000j;
	voltage_C -3983.717+6900.000j;
}

object meter:162 {
	name R4-12-47-1_meter_2;
	phases "ABCN";
	nominal_voltage 7967.434;
	voltage_A 7967.434+0.0j;
	voltage_B -3983.717-6900.000j;
	voltage_C -3983.717+6900.000j;
}

object meter:167 {
	name R4-12-47-1_meter_3;
	phases "ABCN";
	nominal_voltage 7967.434;
	voltage_A 7967.434+0.0j;
	voltage_B -3983.717-6900.000j;
	voltage_C -3983.717+6900.000j;
}

object meter:265 {
	name R4-12-47-1_meter_4;
	phases "ABCN";
	nominal_voltage 7967.434;
	voltage_A 7967.434+0.0j;
	voltage_B -3983.717-6900.000j;
	voltage_C -3983.717+6900.000j;
}

object meter:306 {
	name R4-12-47-1_meter_5;
	phases "ABCN";
	nominal_voltage 7967.434;
	voltage_A 7967.434+0.0j;
	voltage_B -3983.717-6900.000j;
	voltage_C -3983.717+6900.000j;
}

object meter:359 {
	name R4-12-47-1_meter_6;
	phases "ABCN";
	nominal_voltage 7967.434;
	voltage_A 7967.434+0.0j;
	voltage_B -3983.717-6900.000j;
	voltage_C -3983.717+6900.000j;
}

object meter:361 {
	name R4-12-47-1_meter_7;
	phases "ABCN";
	nominal_voltage 7967.434;
	voltage_A 7967.434+0.0j;
	voltage_B -3983.717-6900.000j;
	voltage_C -3983.717+6900.000j;
}

object meter:363 {
	name R4-12-47-1_meter_8;
	phases "ABCN";
	nominal_voltage 7967.434;
	voltage_A 7967.434+0.0j;
	voltage_B -3983.717-6900.000j;
	voltage_C -3983.717+6900.000j;
}

object meter:452 {
	name R4-12-47-1_meter_9;
	phases "ABCN";
	nominal_voltage 7967.434;
	voltage_A 7967.434+0.0j;
	voltage_B -3983.717-6900.000j;
	voltage_C -3983.717+6900.000j;
}

object meter:538 {
	name R4-12-47-1_meter_10;
	phases "ABCN";
	nominal_voltage 7967.434;
	voltage_A 7967.434+0.0j;
	voltage_B -3983.717-6900.000j;
	voltage_C -3983.717+6900.000j;
}

object meter:639 {
	name R4-12-47-1_meter_11;
	phases "ABCN";
	nominal_voltage 7967.434;
	voltage_A 7967.434+0.0j;
	voltage_B -3983.717-6900.000j;
	voltage_C -3983.717+6900.000j;
}

object meter:641 {
	name R4-12-47-1_meter_12;
	phases "ABCN";
	nominal_voltage 7967.434;
	voltage_A 7967.434+0.0j;
	voltage_B -3983.717-6900.000j;
	voltage_C -3983.717+6900.000j;
}

object meter:643 {
	name R4-12-47-1_meter_13;
	phases "ABCN";
	nominal_voltage 7967.434;
	voltage_A 7967.434+0.0j;
	voltage_B -3983.717-6900.000j;
	voltage_C -3983.717+6900.000j;
}

object meter:651 {
	name R4-12-47-1_meter_14;
	phases "ABCN";
	nominal_voltage 7967.434;
	voltage_A 7967.434+0.0j;
	voltage_B -3983.717-6900.000j;
	voltage_C -3983.717+6900.000j;
}

object meter:818 {
	name R4-12-47-1_meter_15;
	phases "ABCN";
	nominal_voltage 7967.434;
	voltage_A 7967.434+0.0j;
	voltage_B -3983.717-6900.000j;
	voltage_C -3983.717+6900.000j;
}

object meter:898 {
	name R4-12-47-1_meter_16;
	phases "ABCN";
	nominal_voltage 7967.434;
	voltage_A 7967.434+0.0j;
	voltage_B -3983.717-6900.000j;
	voltage_C -3983.717+6900.000j;
}

object meter:912 {
	name R4-12-47-1_meter_17;
	phases "ABCN";
	nominal_voltage 7967.434;
	voltage_A 7967.434+0.0j;
	voltage_B -3983.717-6900.000j;
	voltage_C -3983.717+6900.000j;
}

// Meter at feeder
object meter:925 {
	name R4-12-47-1_meter_18;
	phases "ABCN";
	nominal_voltage 7967.434;
	voltage_A 7967.434+0.0j;
	voltage_B -3983.717-6900.000j;
	voltage_C -3983.717+6900.000j;
}


object node:926 {
	name R4-12-47-1_node_1;
	phases "ABCN";
	nominal_voltage 7967.434;
	voltage_A 7967.434+0.0j;
	voltage_B -3983.717-6900.000j;
	voltage_C -3983.717+6900.000j;
}

object node:927 {
	name R4-12-47-1_node_2;
	phases "ABCN";
	nominal_voltage 7967.434;
	voltage_A 7967.434+0.0j;
	voltage_B -3983.717-6900.000j;
	voltage_C -3983.717+6900.000j;
}

object node:929 {
	name R4-12-47-1_node_3;
	phases "ABCN";
	nominal_voltage 7967.434;
	voltage_A 7967.434+0.0j;
	voltage_B -3983.717-6900.000j;
	voltage_C -3983.717+6900.000j;
}

object node:931 {
	name R4-12-47-1_node_4;
	phases "ABCN";
	nominal_voltage 7967.434;
	voltage_A 7967.434+0.0j;
	voltage_B -3983.717-6900.000j;
	voltage_C -3983.717+6900.000j;
}

object node:932 {
	name R4-12-47-1_node_5;
	phases "BN";
	nominal_voltage 7967.434;
	voltage_B -3983.717-6900.000j;
}

object node:934 {
	name R4-12-47-1_node_6;
	phases "ABCN";
	nominal_voltage 7967.434;
	voltage_A 7967.434+0.0j;
	voltage_B -3983.717-6900.000j;
	voltage_C -3983.717+6900.000j;
}

object node:935 {
	name R4-12-47-1_node_7;
	phases "ABN";
	nominal_voltage 7967.434;
	voltage_A 7967.434+0.0j;
	voltage_B -3983.717-6900.000j;
}

object node:938 {
	name R4-12-47-1_node_8;
	phases "AN";
	nominal_voltage 7967.434;
	voltage_A 7967.434+0.0j;
}

object node:940 {
	name R4-12-47-1_node_9;
	phases "ABN";
	nominal_voltage 7967.434;
	voltage_A 7967.434+0.0j;
	voltage_B -3983.717-6900.000j;
}

object node:942 {
	name R4-12-47-1_node_10;
	phases "ABN";
	nominal_voltage 7967.434;
	voltage_A 7967.434+0.0j;
	voltage_B -3983.717-6900.000j;
}

object node:943 {
	name R4-12-47-1_node_11;
	phases "ABN";
	nominal_voltage 7967.434;
	voltage_A 7967.434+0.0j;
	voltage_B -3983.717-6900.000j;
}

object node:945 {
	name R4-12-47-1_node_12;
	phases "ABCN";
	nominal_voltage 7967.434;
	voltage_A 7967.434+0.0j;
	voltage_B -3983.717-6900.000j;
	voltage_C -3983.717+6900.000j;
}
