//*********************************************
// $Id: R4-25.00-1.glm 1132 2008-11-18 22:36:10Z dchassin $ 
//*********************************************

clock { 
	 timezone EST+5EDT;
	 timestamp '2000-01-01 0:00:00';
}

//*********************************************
// modules
module powerflow;


object triplex_line_conductor: {
	name 1/0 AA triplex;
	resistance 0.97;
	geometric_mean_radius 0.0111;
}

object triplex_line_configuration:1 {
	conductor_1 1/0 AA triplex;
	conductor_2 1/0 AA triplex;
	conductor_N 1/0 AA triplex;
	insulation_thickness 0.08;
	diameter 0.368;
}

object transformer:65  {
	phases "BS";
	from 67_18220;
	to 67_18220_RB_M;
	configuration transformer_configuration:56;
}

object triplex_meter:66 {
	name 67_18220_RB_M;
	phases "BS";
	nominal_voltage 120;
	voltage_1 -60.000-103.923j;
	voltage_2 -60.000-103.923j;
	voltage_N 0;
}

object triplex_node:67 {
	name 67_18220_RB_TX;
	parent 67_18220_RB_M;
	phases BS;
	nominal_voltage 120;
	latitude 50N6'2.115";
	longitude 119W9'16.039";
	power_1 8+1.6248j;
	voltage_1 -60.000-103.923j;
	voltage_2 -60.000-103.923j;
	voltage_N 0;
}

object transformer:68  {
	phases "BS";
	from 67_18200;
	to 67_18200_RB_M;
	configuration transformer_configuration:56;
}

object triplex_meter:69 {
	name 67_18200_RB_M;
	phases "BS";
	nominal_voltage 120;
	voltage_1 -60.000-103.923j;
	voltage_2 -60.000-103.923j;
	voltage_N 0;
}

object triplex_node:70 {
	name 67_18200_RB_TX;
	parent 67_18200_RB_M;
	phases BS;
	nominal_voltage 120;
	latitude 50N6'11.267";
	longitude 119W9'5.113";
	power_1 10+2.031j;
	voltage_1 -60.000-103.923j;
	voltage_2 -60.000-103.923j;
	voltage_N 0;
}

object transformer:71  {
	phases "BS";
	from 67_18201;
	to 67_18201_RB_M;
	configuration transformer_configuration:56;
}

object triplex_meter:72 {
	name 67_18201_RB_M;
	phases "BS";
	nominal_voltage 120;
	voltage_1 -60.000-103.923j;
	voltage_2 -60.000-103.923j;
	voltage_N 0;
}

object triplex_node:73 {
	name 67_18201_RB_TX;
	parent 67_18201_RB_M;
	phases BS;
	nominal_voltage 120;
	latitude 50N6'8.604";
	longitude 119W9'5.978";
	power_1 16+3.2496j;
	voltage_1 -60.000-103.923j;
	voltage_2 -60.000-103.923j;
	voltage_N 0;
}

object transformer:74  {
	phases "BS";
	from 67_18202;
	to 67_18202_RB_M;
	configuration transformer_configuration:56;
}

object triplex_meter:75 {
	name 67_18202_RB_M;
	phases "BS";
	nominal_voltage 120;
	voltage_1 -60.000-103.923j;
	voltage_2 -60.000-103.923j;
	voltage_N 0;
}

object triplex_node:76 {
	name 67_18202_RB_TX;
	parent 67_18202_RB_M;
	phases BS;
	nominal_voltage 120;
	latitude 50N6'6.203";
	longitude 119W9'6.812";
	power_1 10+2.031j;
	voltage_1 -60.000-103.923j;
	voltage_2 -60.000-103.923j;
	voltage_N 0;
}

object transformer:77  {
	phases "BS";
	from 67_18203;
	to 67_18203_RB_M;
	configuration transformer_configuration:57;
}

object triplex_meter:78 {
	name 67_18203_RB_M;
	phases "BS";
	nominal_voltage 120;
	voltage_1 -60.000-103.923j;
	voltage_2 -60.000-103.923j;
	voltage_N 0;
}

object triplex_node:79 {
	name 67_18203_RB_TX;
	parent 67_18203_RB_M;
	phases BS;
	nominal_voltage 120;
	latitude 50N6'4.644";
	longitude 119W9'9.122";
	power_1 5+1.0155j;
	voltage_1 -60.000-103.923j;
	voltage_2 -60.000-103.923j;
	voltage_N 0;
}

object transformer:80  {
	phases "BS";
	from 67_18204;
	to 67_18204_RB_M;
	configuration transformer_configuration:57;
}

object triplex_meter:81 {
	name 67_18204_RB_M;
	phases "BS";
	nominal_voltage 120;
	voltage_1 -60.000-103.923j;
	voltage_2 -60.000-103.923j;
	voltage_N 0;
}

object triplex_node:82 {
	name 67_18204_RB_TX;
	parent 67_18204_RB_M;
	phases BS;
	nominal_voltage 120;
	latitude 50N6'5.421";
	longitude 119W9'17.788";
	power_1 7+1.4217j;
	voltage_1 -60.000-103.923j;
	voltage_2 -60.000-103.923j;
	voltage_N 0;
}

object transformer:83  {
	phases "BS";
	from 67_18206;
	to 67_18206_RB_M;
	configuration transformer_configuration:57;
}

object triplex_meter:84 {
	name 67_18206_RB_M;
	phases "BS";
	nominal_voltage 120;
	voltage_1 -60.000-103.923j;
	voltage_2 -60.000-103.923j;
	voltage_N 0;
}

object triplex_node:85 {
	name 67_18206_RB_TX;
	parent 67_18206_RB_M;
	phases BS;
	nominal_voltage 120;
	latitude 50N6'19.458";
	longitude 119W9'18.060";
	power_1 3+0.6093j;
	voltage_1 -60.000-103.923j;
	voltage_2 -60.000-103.923j;
	voltage_N 0;
}

object transformer:86  {
	phases "BS";
	from 67_18207;
	to 67_18207_RB_M;
	configuration transformer_configuration:57;
}

object triplex_meter:87 {
	name 67_18207_RB_M;
	phases "BS";
	nominal_voltage 120;
	voltage_1 -60.000-103.923j;
	voltage_2 -60.000-103.923j;
	voltage_N 0;
}

object triplex_node:88 {
	name 67_18207_RB_TX;
	parent 67_18207_RB_M;
	phases BS;
	nominal_voltage 120;
	latitude 50N6'19.174";
	longitude 119W9'21.355";
	power_1 0+0j;
	voltage_1 -60.000-103.923j;
	voltage_2 -60.000-103.923j;
	voltage_N 0;
}

object transformer:89  {
	phases "BS";
	from 67_18205;
	to 67_18205_RB_M;
	configuration transformer_configuration:57;
}

object triplex_meter:90 {
	name 67_18205_RB_M;
	phases "BS";
	nominal_voltage 120;
	voltage_1 -60.000-103.923j;
	voltage_2 -60.000-103.923j;
	voltage_N 0;
}

object triplex_node:91 {
	name 67_18205_RB_TX;
	parent 67_18205_RB_M;
	phases BS;
	nominal_voltage 120;
	latitude 50N6'18.293";
	longitude 119W9'13.248";
	power_1 13+2.6403j;
	voltage_1 -60.000-103.923j;
	voltage_2 -60.000-103.923j;
	voltage_N 0;
}

object transformer:92  {
	phases "BS";
	from 67_18279;
	to 67_18279_RB_M;
	configuration transformer_configuration:58;
}

object triplex_meter:93 {
	name 67_18279_RB_M;
	phases "BS";
	nominal_voltage 120;
	voltage_1 -60.000-103.923j;
	voltage_2 -60.000-103.923j;
	voltage_N 0;
}

object triplex_node:94 {
	name 67_18279_RB_TX;
	parent 67_18279_RB_M;
	phases BS;
	nominal_voltage 120;
	latitude 50N6'22.830";
	longitude 119W9'26.511";
	power_1 2+0.4062j;
	voltage_1 -60.000-103.923j;
	voltage_2 -60.000-103.923j;
	voltage_N 0;
}

object transformer:95  {
	phases "BS";
	from 67_18480;
	to 67_18480_RB_M;
	configuration transformer_configuration:57;
}

object triplex_meter:96 {
	name 67_18480_RB_M;
	phases "BS";
	nominal_voltage 120;
	voltage_1 -60.000-103.923j;
	voltage_2 -60.000-103.923j;
	voltage_N 0;
}

object triplex_node:97 {
	name 67_18480_RB_TX;
	parent 67_18480_RB_M;
	phases BS;
	nominal_voltage 120;
	latitude 50N6'20.331";
	longitude 119W8'37.046";
	power_1 9+1.8279j;
	voltage_1 -60.000-103.923j;
	voltage_2 -60.000-103.923j;
	voltage_N 0;
}

object transformer:98  {
	phases "BS";
	from 67_18479;
	to 67_18479_RB_M;
	configuration transformer_configuration:56;
}

object triplex_meter:99 {
	name 67_18479_RB_M;
	phases "BS";
	nominal_voltage 120;
	voltage_1 -60.000-103.923j;
	voltage_2 -60.000-103.923j;
	voltage_N 0;
}

object triplex_node:100 {
	name 67_18479_RB_TX;
	parent 67_18479_RB_M;
	phases BS;
	nominal_voltage 120;
	latitude 50N6'21.830";
	longitude 119W8'35.744";
	power_1 22+4.4682j;
	voltage_1 -60.000-103.923j;
	voltage_2 -60.000-103.923j;
	voltage_N 0;
}

object transformer:101  {
	phases "BS";
	from 67_18477;
	to 67_18477_RB_M;
	configuration transformer_configuration:57;
}

object triplex_meter:102 {
	name 67_18477_RB_M;
	phases "BS";
	nominal_voltage 120;
	voltage_1 -60.000-103.923j;
	voltage_2 -60.000-103.923j;
	voltage_N 0;
}

object triplex_node:103 {
	name 67_18477_RB_TX;
	parent 67_18477_RB_M;
	phases BS;
	nominal_voltage 120;
	latitude 50N6'27.717";
	longitude 119W8'37.328";
	power_1 2+0.4062j;
	voltage_1 -60.000-103.923j;
	voltage_2 -60.000-103.923j;
	voltage_N 0;
}

object transformer:104  {
	phases "AS";
	from 67_18377;
	to 67_18377_CA_M;
	configuration transformer_configuration:51;
}

object triplex_meter:105 {
	name 67_18377_CA_M;
	phases "AS";
	nominal_voltage 120;
	voltage_1 120;
	voltage_2 120;
	voltage_N 0;
}

object triplex_node:106 {
	name 67_18377_CA_TX;
	parent 67_18377_CA_M;
	phases AS;
	nominal_voltage 120;
	latitude 50N6'13.640";
	longitude 119W8'29.546";
	power_1 5+1j;
	voltage_1 120;
	voltage_2 120;
	voltage_N 0;
}

object transformer:107  {
	phases "CS";
	from 67_18377;
	to 67_18377_CC_M;
	configuration transformer_configuration:59;
}

object triplex_meter:108 {
	name 67_18377_CC_M;
	phases "CS";
	nominal_voltage 120;
	voltage_1 -60.000+103.923j;
	voltage_2 -60.000+103.923j;
	voltage_N 0;
}

object triplex_node:109 {
	name 67_18377_CC_TX;
	parent 67_18377_CC_M;
	phases AS;
	nominal_voltage 120;
	latitude 50N6'13.640";
	longitude 119W8'29.546";
	power_1 5+1j;
	voltage_1 -60.000+103.923j;
	voltage_2 -60.000+103.923j;
	voltage_N 0;
}

object transformer:110  {
	phases "AS";
	from 67_18383;
	to 67_18383_RA_M;
	configuration transformer_configuration:52;
}

object triplex_meter:111 {
	name 67_18383_RA_M;
	phases "AS";
	nominal_voltage 120;
	voltage_1 120;
	voltage_2 120;
	voltage_N 0;
}

object triplex_node:112 {
	name 67_18383_RA_TX;
	parent 67_18383_RA_M;
	phases AS;
	nominal_voltage 120;
	latitude 50N6'9.865";
	longitude 119W7'57.384";
	power_1 8+1.6248j;
	voltage_1 120;
	voltage_2 120;
	voltage_N 0;
}

object transformer:113  {
	phases "CS";
	from 67_18383;
	to 67_18383_RC_M;
	configuration transformer_configuration:60;
}

object triplex_meter:114 {
	name 67_18383_RC_M;
	phases "CS";
	nominal_voltage 120;
	voltage_1 -60.000+103.923j;
	voltage_2 -60.000+103.923j;
	voltage_N 0;
}

object triplex_node:115 {
	name 67_18383_RC_TX;
	parent 67_18383_RC_M;
	phases CS;
	nominal_voltage 120;
	latitude 50N6'9.865";
	longitude 119W7'57.384";
	power_1 0+0j;
	voltage_1 -60.000+103.923j;
	voltage_2 -60.000+103.923j;
	voltage_N 0;
}

object transformer:116  {
	phases "AS";
	from 67_18381;
	to 67_18381_RA_M;
	configuration transformer_configuration:53;
}

object triplex_meter:117 {
	name 67_18381_RA_M;
	phases "AS";
	nominal_voltage 120;
	voltage_1 120;
	voltage_2 120;
	voltage_N 0;
}

object triplex_node:118 {
	name 67_18381_RA_TX;
	parent 67_18381_RA_M;
	phases AS;
	nominal_voltage 120;
	latitude 50N6'12.626";
	longitude 119W8'15.721";
	power_1 13+2.6403j;
	voltage_1 120;
	voltage_2 120;
	voltage_N 0;
}

object transformer:119  {
	phases "CS";
	from 67_18381;
	to 67_18381_RC_M;
	configuration transformer_configuration:61;
}

object triplex_meter:120 {
	name 67_18381_RC_M;
	phases "CS";
	nominal_voltage 120;
	voltage_1 -60.000+103.923j;
	voltage_2 -60.000+103.923j;
	voltage_N 0;
}

object triplex_node:121 {
	name 67_18381_RC_TX;
	parent 67_18381_RC_M;
	phases CS;
	nominal_voltage 120;
	latitude 50N6'12.626";
	longitude 119W8'15.721";
	power_1 0+0j;
	voltage_1 -60.000+103.923j;
	voltage_2 -60.000+103.923j;
	voltage_N 0;
}

object transformer:122  {
	phases "BS";
	from 67_18215;
	to 67_18215_RB_M;
	configuration transformer_configuration:57;
}

object triplex_meter:123 {
	name 67_18215_RB_M;
	phases "BS";
	nominal_voltage 120;
	voltage_1 -60.000-103.923j;
	voltage_2 -60.000-103.923j;
	voltage_N 0;
}

object triplex_node:124 {
	name 67_18215_RB_TX;
	parent 67_18215_RB_M;
	phases BS;
	nominal_voltage 120;
	latitude 50N6'1.967";
	longitude 119W9'11.691";
	power_1 11+2.2341j;
	voltage_1 -60.000-103.923j;
	voltage_2 -60.000-103.923j;
	voltage_N 0;
}

object transformer:125  {
	phases "AS";
	from 67_18211;
	to 67_18211_RA_M;
	configuration transformer_configuration:52;
}

object triplex_meter:126 {
	name 67_18211_RA_M;
	phases "AS";
	nominal_voltage 120;
	voltage_1 120;
	voltage_2 120;
	voltage_N 0;
}

object triplex_node:127 {
	name 67_18211_RA_TX;
	parent 67_18211_RA_M;
	phases AS;
	nominal_voltage 120;
	latitude 50N6'14.444";
	longitude 119W8'41.003";
	power_1 5+1.0155j;
	voltage_1 120;
	voltage_2 120;
	voltage_N 0;
}

object transformer:128  {
	phases "BS";
	from 67_18194;
	to 67_18194_RB_M;
	configuration transformer_configuration:57;
}

object triplex_meter:129 {
	name 67_18194_RB_M;
	phases "BS";
	nominal_voltage 120;
	voltage_1 -60.000-103.923j;
	voltage_2 -60.000-103.923j;
	voltage_N 0;
}

object triplex_node:130 {
	name 67_18194_RB_TX;
	parent 67_18194_RB_M;
	phases BS;
	nominal_voltage 120;
	latitude 50N6'20.399";
	longitude 119W8'41.322";
	power_1 1+0.2031j;
	voltage_1 -60.000-103.923j;
	voltage_2 -60.000-103.923j;
	voltage_N 0;
}

object transformer:131  {
	phases "BS";
	from 67_18188;
	to 67_18188_RB_M;
	configuration transformer_configuration:58;
}

object triplex_meter:132 {
	name 67_18188_RB_M;
	phases "BS";
	nominal_voltage 120;
	voltage_1 -60.000-103.923j;
	voltage_2 -60.000-103.923j;
	voltage_N 0;
}

object triplex_node:133 {
	name 67_18188_RB_TX;
	parent 67_18188_RB_M;
	phases BS;
	nominal_voltage 120;
	latitude 50N6'13.083";
	longitude 119W8'50.366";
	power_1 0+0j;
	voltage_1 -60.000-103.923j;
	voltage_2 -60.000-103.923j;
	voltage_N 0;
}

object transformer:134  {
	phases "BS";
	from 67_18192;
	to 67_18192_RB_M;
	configuration transformer_configuration:56;
}

object triplex_meter:135 {
	name 67_18192_RB_M;
	phases "BS";
	nominal_voltage 120;
	voltage_1 -60.000-103.923j;
	voltage_2 -60.000-103.923j;
	voltage_N 0;
}

object triplex_node:136 {
	name 67_18192_RB_TX;
	parent 67_18192_RB_M;
	phases BS;
	nominal_voltage 120;
	latitude 50N6'11.711";
	longitude 119W8'56.224";
	power_1 12+2.4372j;
	voltage_1 -60.000-103.923j;
	voltage_2 -60.000-103.923j;
	voltage_N 0;
}

object transformer:137  {
	phases "BS";
	from 67_18189;
	to 67_18189_RB_M;
	configuration transformer_configuration:58;
}

object triplex_meter:138 {
	name 67_18189_RB_M;
	phases "BS";
	nominal_voltage 120;
	voltage_1 -60.000-103.923j;
	voltage_2 -60.000-103.923j;
	voltage_N 0;
}

object triplex_node:139 {
	name 67_18189_RB_TX;
	parent 67_18189_RB_M;
	phases BS;
	nominal_voltage 120;
	latitude 50N6'19.708";
	longitude 119W9'1.960";
	power_1 3+0.6093j;
	voltage_1 -60.000-103.923j;
	voltage_2 -60.000-103.923j;
	voltage_N 0;
}

object transformer:140  {
	phases "BS";
	from 67_18199;
	to 67_18199_RB_M;
	configuration transformer_configuration:57;
}

object triplex_meter:141 {
	name 67_18199_RB_M;
	phases "BS";
	nominal_voltage 120;
	voltage_1 -60.000-103.923j;
	voltage_2 -60.000-103.923j;
	voltage_N 0;
}

object triplex_node:142 {
	name 67_18199_RB_TX;
	parent 67_18199_RB_M;
	phases BS;
	nominal_voltage 120;
	latitude 50N6'13.266";
	longitude 119W9'6.102";
	power_1 8+1.6248j;
	voltage_1 -60.000-103.923j;
	voltage_2 -60.000-103.923j;
	voltage_N 0;
}

object transformer:143  {
	phases "AS";
	from 67_18193;
	to 67_18193_RA_M;
	configuration transformer_configuration:54;
}

object triplex_meter:144 {
	name 67_18193_RA_M;
	phases "AS";
	nominal_voltage 120;
	voltage_1 120;
	voltage_2 120;
	voltage_N 0;
}

object triplex_node:145 {
	name 67_18193_RA_TX;
	parent 67_18193_RA_M;
	phases AS;
	nominal_voltage 120;
	latitude 50N6'27.168";
	longitude 119W8'40.064";
	power_1 17+3.4527j;
	voltage_1 120;
	voltage_2 120;
	voltage_N 0;
}

object transformer:146  {
	phases "BS";
	from 67_18213;
	to 67_18213_RB_M;
	configuration transformer_configuration:58;
}

object triplex_meter:147 {
	name 67_18213_RB_M;
	phases "BS";
	nominal_voltage 120;
	voltage_1 -60.000-103.923j;
	voltage_2 -60.000-103.923j;
	voltage_N 0;
}

object triplex_node:148 {
	name 67_18213_RB_TX;
	parent 67_18213_RB_M;
	phases BS;
	nominal_voltage 120;
	latitude 50N6'18.764";
	longitude 119W8'41.978";
	power_1 2+0.4062j;
	voltage_1 -60.000-103.923j;
	voltage_2 -60.000-103.923j;
	voltage_N 0;
}

object transformer:149  {
	phases "BS";
	from 67_18195;
	to 67_18195_RB_M;
	configuration transformer_configuration:58;
}

object triplex_meter:150 {
	name 67_18195_RB_M;
	phases "BS";
	nominal_voltage 120;
	voltage_1 -60.000-103.923j;
	voltage_2 -60.000-103.923j;
	voltage_N 0;
}

object triplex_node:151 {
	name 67_18195_RB_TX;
	parent 67_18195_RB_M;
	phases BS;
	nominal_voltage 120;
	latitude 50N6'18.592";
	longitude 119W8'46.488";
	power_1 1+0.2031j;
	voltage_1 -60.000-103.923j;
	voltage_2 -60.000-103.923j;
	voltage_N 0;
}

object transformer:152  {
	phases "BS";
	from 67_18196;
	to 67_18196_RB_M;
	configuration transformer_configuration:57;
}

object triplex_meter:153 {
	name 67_18196_RB_M;
	phases "BS";
	nominal_voltage 120;
	voltage_1 -60.000-103.923j;
	voltage_2 -60.000-103.923j;
	voltage_N 0;
}

object triplex_node:154 {
	name 67_18196_RB_TX;
	parent 67_18196_RB_M;
	phases BS;
	nominal_voltage 120;
	latitude 50N6'15.347";
	longitude 119W8'57.882";
	power_1 6+1.2186j;
	voltage_1 -60.000-103.923j;
	voltage_2 -60.000-103.923j;
	voltage_N 0;
}

object transformer:155  {
	phases "BS";
	from 67_18197;
	to 67_18197_RB_M;
	configuration transformer_configuration:57;
}

object triplex_meter:156 {
	name 67_18197_RB_M;
	phases "BS";
	nominal_voltage 120;
	voltage_1 -60.000-103.923j;
	voltage_2 -60.000-103.923j;
	voltage_N 0;
}

object triplex_node:157 {
	name 67_18197_RB_TX;
	parent 67_18197_RB_M;
	phases BS;
	nominal_voltage 120;
	latitude 50N6'14.653";
	longitude 119W9'2.418";
	power_1 0+0j;
	voltage_1 -60.000-103.923j;
	voltage_2 -60.000-103.923j;
	voltage_N 0;
}

object transformer:158  {
	phases "BS";
	from 67_18198;
	to 67_18198_RB_M;
	configuration transformer_configuration:56;
}

object triplex_meter:159 {
	name 67_18198_RB_M;
	phases "BS";
	nominal_voltage 120;
	voltage_1 -60.000-103.923j;
	voltage_2 -60.000-103.923j;
	voltage_N 0;
}

object triplex_node:160 {
	name 67_18198_RB_TX;
	parent 67_18198_RB_M;
	phases BS;
	nominal_voltage 120;
	latitude 50N6'14.694";
	longitude 119W9'3.901";
	power_1 0+0j;
	voltage_1 -60.000-103.923j;
	voltage_2 -60.000-103.923j;
	voltage_N 0;
}

object transformer:161  {
	phases "BS";
	from 67_18469;
	to 67_18469_RB_M;
	configuration transformer_configuration:57;
}

object triplex_meter:162 {
	name 67_18469_RB_M;
	phases "BS";
	nominal_voltage 120;
	voltage_1 -60.000-103.923j;
	voltage_2 -60.000-103.923j;
	voltage_N 0;
}

object triplex_node:163 {
	name 67_18469_RB_TX;
	parent 67_18469_RB_M;
	phases BS;
	nominal_voltage 120;
	latitude 50N6'12.879";
	longitude 119W7'56.274";
	power_1 1+0.2031j;
	voltage_1 -60.000-103.923j;
	voltage_2 -60.000-103.923j;
	voltage_N 0;
}

object transformer:164  {
	phases "AS";
	from 67_23734;
	to 67_23734_RA_M;
	configuration transformer_configuration:55;
}

object triplex_meter:165 {
	name 67_23734_RA_M;
	phases "AS";
	nominal_voltage 120;
	voltage_1 120;
	voltage_2 120;
	voltage_N 0;
}

object triplex_node:166 {
	name 67_23734_RA_TX;
	parent 67_23734_RA_M;
	phases AS;
	nominal_voltage 120;
	latitude 50N6'7.188";
	longitude 119W8'7.044";
	power_1 13+2.6403j;
	voltage_1 120;
	voltage_2 120;
	voltage_N 0;
}

object transformer:167  {
	phases "AS";
	from 67_18384;
	to 67_18384_RA_M;
	configuration transformer_configuration:52;
}

object triplex_meter:168 {
	name 67_18384_RA_M;
	phases "AS";
	nominal_voltage 120;
	voltage_1 120;
	voltage_2 120;
	voltage_N 0;
}

object triplex_node:169 {
	name 67_18384_RA_TX;
	parent 67_18384_RA_M;
	phases AS;
	nominal_voltage 120;
	latitude 50N6'11.302";
	longitude 119W8'2.578";
	power_1 5+1.0155j;
	voltage_1 120;
	voltage_2 120;
	voltage_N 0;
}

object transformer:170  {
	phases "BS";
	from 67_18379;
	to 67_18379_RB_M;
	configuration transformer_configuration:58;
}

object triplex_meter:171 {
	name 67_18379_RB_M;
	phases "BS";
	nominal_voltage 120;
	voltage_1 -60.000-103.923j;
	voltage_2 -60.000-103.923j;
	voltage_N 0;
}

object triplex_node:172 {
	name 67_18379_RB_TX;
	parent 67_18379_RB_M;
	phases BS;
	nominal_voltage 120;
	latitude 50N6'17.529";
	longitude 119W8'33.268";
	power_1 0+0j;
	voltage_1 -60.000-103.923j;
	voltage_2 -60.000-103.923j;
	voltage_N 0;
}

object transformer:173  {
	phases "AS";
	from 67_18380;
	to 67_18380_RA_M;
	configuration transformer_configuration:52;
}

object triplex_meter:174 {
	name 67_18380_RA_M;
	phases "AS";
	nominal_voltage 120;
	voltage_1 120;
	voltage_2 120;
	voltage_N 0;
}

object triplex_node:175 {
	name 67_18380_RA_TX;
	parent 67_18380_RA_M;
	phases AS;
	nominal_voltage 120;
	latitude 50N6'9.887";
	longitude 119W8'16.211";
	power_1 1+0.2031j;
	voltage_1 120;
	voltage_2 120;
	voltage_N 0;
}

object overhead_line_conductor:16 {
	name 2 CU;
	rating.summer.continuous 204.0 ;
	geometric_mean_radius 0.292 ft;
	resistance 1.5418;
}

object overhead_line_conductor:29 {
	name 336 ACSR;
	rating.summer.continuous 530.0 ;
	geometric_mean_radius 0.721 ft;
	resistance 0.721;
}

object overhead_line_conductor:11 {
	name 4 CU;
	rating.summer.continuous 149.0 ;
	geometric_mean_radius 0.244 ft;
	resistance 0.306;
}

object overhead_line_conductor:19 {
	name 123.3 AAAC;
	rating.summer.continuous 256.0 ;
	geometric_mean_radius 0.012 ft;
	resistance 0.18;
}

object underground_line_conductor:44 {
	name 4/0 AAC (Conc);
	rating.summer.continuous 214.0 ;
	outer_diameter 1.32;
	conductor_gmr 0.0177 ft;
	conductor_diameter 0.528;
	conductor_resistance 0.433488;
	neutral_gmr 0.0485380344339232 ft;
	neutral_resistance 13.5696;
	neutral_diameter 0.0641;
	neutral_strands 11.0;
	shield_gmr 0.00;
	shield_resistance 0.00;
}

object overhead_line_conductor:23 {
	name 3/0 ACSR;
	rating.summer.continuous 300.0 ;
	geometric_mean_radius 0.502 ft;
	resistance 0.502;
}

object line_spacing:443 {
	distance_BN 48.0 in;
}

object line_spacing:445 {
	distance_CN 48.0 in;
}

object line_spacing:447 {
	distance_AB 57.6 in;
	distance_BC 57.6 in;
	distance_AC 57.6 in;
	distance_AN 48.0 in;
	distance_BN 48.0 in;
	distance_CN 48.0 in;
}

object line_spacing:450 {
	distance_AN 48.0 in;
}

object line_spacing:454 {
	distance_AC 51.6 in;
	distance_AN 48.0 in;
	distance_CN 48.0 in;
}

object line_spacing:456 {
	distance_CN 0.0 in;
}

object line_spacing:459 {
	distance_AN 0.0 in;
}

object line_spacing:462 {
	distance_AB 48.0 in;
	distance_BC 48.0 in;
	distance_AC 48.0 in;
	distance_AN 48.0 in;
	distance_BN 48.0 in;
	distance_CN 48.0 in;
}

object line_configuration:444 {
	conductor_B overhead_line_conductor:16;
	conductor_N overhead_line_conductor:16;
	spacing line_spacing:443;
}

object line_configuration:446 {
	conductor_C overhead_line_conductor:16;
	conductor_N overhead_line_conductor:16;
	spacing line_spacing:445;
}

object line_configuration:448 {
	conductor_A overhead_line_conductor:29;
	conductor_B overhead_line_conductor:29;
	conductor_C overhead_line_conductor:29;
	conductor_N overhead_line_conductor:29;
	spacing line_spacing:447;
}

object line_configuration:449 {
	conductor_B overhead_line_conductor:11;
	conductor_N overhead_line_conductor:11;
	spacing line_spacing:443;
}

object line_configuration:451 {
	conductor_A overhead_line_conductor:16;
	conductor_N overhead_line_conductor:16;
	spacing line_spacing:450;
}

object line_configuration:452 {
	conductor_C overhead_line_conductor:19;
	conductor_N overhead_line_conductor:19;
	spacing line_spacing:445;
}

object line_configuration:453 {
	conductor_C overhead_line_conductor:19;
	conductor_N overhead_line_conductor:19;
	spacing line_spacing:445;
}

object line_configuration:455 {
	conductor_A overhead_line_conductor:16;
	conductor_C overhead_line_conductor:16;
	conductor_N overhead_line_conductor:16;
	spacing line_spacing:454;
}

object line_configuration:457 {
	conductor_C underground_line_conductor:44;
	conductor_N underground_line_conductor:44;
	spacing line_spacing:456;
}

object line_configuration:458 {
	conductor_C underground_line_conductor:44;
	conductor_N underground_line_conductor:44;
	spacing line_spacing:445;
}

object line_configuration:460 {
	conductor_A underground_line_conductor:44;
	conductor_N underground_line_conductor:44;
	spacing line_spacing:459;
}

object line_configuration:461 {
	conductor_A overhead_line_conductor:11;
	conductor_N overhead_line_conductor:11;
	spacing line_spacing:450;
}

object line_configuration:463 {
	conductor_A overhead_line_conductor:29;
	conductor_B overhead_line_conductor:29;
	conductor_C overhead_line_conductor:29;
	conductor_N overhead_line_conductor:29;
	spacing line_spacing:462;
}

object transformer_configuration:51 {
	connect_type SINGLE_PHASE_CENTER_TAPPED;
	install_type POLETOP;
	primary_voltage 14376.0 V;
	secondary_voltage 120 V;
	power_rating 50;
	powerA_rating 50;
	resistance 0.003;
	reactance 0.002;
}

object transformer_configuration:52 {
	connect_type SINGLE_PHASE_CENTER_TAPPED;
	install_type POLETOP;
	primary_voltage 14376.0 V;
	secondary_voltage 120 V;
	power_rating 15;
	powerA_rating 15;
	resistance 0.01;
	reactance 0.00666666666666667;
}

object transformer_configuration:53 {
	connect_type SINGLE_PHASE_CENTER_TAPPED;
	install_type POLETOP;
	primary_voltage 14376.0 V;
	secondary_voltage 120 V;
	power_rating 10;
	powerA_rating 10;
	resistance 0.015;
	reactance 0.01;
}

object transformer_configuration:54 {
	connect_type SINGLE_PHASE_CENTER_TAPPED;
	install_type POLETOP;
	primary_voltage 14376.0 V;
	secondary_voltage 120 V;
	power_rating 25;
	powerA_rating 25;
	resistance 0.006;
	reactance 0.004;
}

object transformer_configuration:55 {
	connect_type SINGLE_PHASE_CENTER_TAPPED;
	install_type PADMOUNT;
	primary_voltage 14376.0 V;
	secondary_voltage 120 V;
	power_rating 25;
	powerA_rating 25;
	resistance 0.006;
	reactance 0.004;
}

object transformer_configuration:56 {
	connect_type SINGLE_PHASE_CENTER_TAPPED;
	install_type POLETOP;
	primary_voltage 14376.0 V;
	secondary_voltage 120 V;
	power_rating 25;
	powerB_rating 25;
	resistance 0.006;
	reactance 0.004;
}

object transformer_configuration:57 {
	connect_type SINGLE_PHASE_CENTER_TAPPED;
	install_type POLETOP;
	primary_voltage 14376.0 V;
	secondary_voltage 120 V;
	power_rating 15;
	powerB_rating 15;
	resistance 0.01;
	reactance 0.00666666666666667;
}

object transformer_configuration:58 {
	connect_type SINGLE_PHASE_CENTER_TAPPED;
	install_type POLETOP;
	primary_voltage 14376.0 V;
	secondary_voltage 120 V;
	power_rating 10;
	powerB_rating 10;
	resistance 0.015;
	reactance 0.01;
}

object transformer_configuration:59 {
	connect_type SINGLE_PHASE_CENTER_TAPPED;
	install_type POLETOP;
	primary_voltage 14376.0 V;
	secondary_voltage 120 V;
	power_rating 50;
	powerC_rating 50;
	resistance 0.003;
	reactance 0.002;
}

object transformer_configuration:60 {
	connect_type SINGLE_PHASE_CENTER_TAPPED;
	install_type POLETOP;
	primary_voltage 14376.0 V;
	secondary_voltage 120 V;
	power_rating 15;
	powerC_rating 15;
	resistance 0.01;
	reactance 0.00666666666666667;
}

object transformer_configuration:61 {
	connect_type SINGLE_PHASE_CENTER_TAPPED;
	install_type POLETOP;
	primary_voltage 14376.0 V;
	secondary_voltage 120 V;
	power_rating 10;
	powerC_rating 10;
	resistance 0.015;
	reactance 0.01;
}

object transformer_configuration:62 {
	connect_type SINGLE_PHASE_CENTER_TAPPED;
	install_type POLETOP;
	primary_voltage 14376.0 V;
	secondary_voltage 120 V;
	power_rating 25;
	powerC_rating 25;
	resistance 0.006;
	reactance 0.004;
}

object transformer_configuration:63 {
	connect_type SINGLE_PHASE_CENTER_TAPPED;
	install_type PADMOUNT;
	primary_voltage 14376.0 V;
	secondary_voltage 120 V;
	power_rating 25;
	powerC_rating 25;
	resistance 0.006;
	reactance 0.004;
}

object transformer_configuration:64 {
	connect_type WYE_WYE;
	install_type POLETOP;
	primary_voltage 24900 V;
	secondary_voltage 480 V;
	power_rating 100;
	powerA_rating 50;
	powerB_rating 0;
	powerC_rating 50;
	resistance 0.001;
	reactance 0.005;
}

object overhead_line:464 {
	name 57.10501.1_L;
	phases "B|N";
	from node:423;
	to node:261;
	length 108.056550577489;
	configuration line_configuration:444;
}

object overhead_line:465 {
	name 57.10501.2_L;
	phases "B|N";
	from node:261;
	to node:373;
	length 52.7557353503485;
	configuration line_configuration:444;
}

object overhead_line:466 {
	name 57.10670.1_L;
	phases "C|N";
	from node:386;
	to node:216;
	length 243.622003564816;
	configuration line_configuration:446;
}

object overhead_line:467 {
	name 57.10670.2_L;
	phases "C|N";
	from node:216;
	to node:342;
	length 285.10891683127;
	configuration line_configuration:446;
}

object overhead_line:468 {
	name 57.10670.3_L;
	phases "C|N";
	from node:342;
	to node:346;
	length 249.452202798349;
	configuration line_configuration:446;
}

object overhead_line:469 {
	name 57.10674.1_L;
	phases "C|N";
	from node:382;
	to node:437;
	length 250.279639011483;
	configuration line_configuration:446;
}

object overhead_line:470 {
	name 57.10674.2_L;
	phases "C|N";
	from node:437;
	to node:316;
	length 229.582227570238;
	configuration line_configuration:446;
}

object overhead_line:471 {
	name 57.10674.3_L;
	phases "C|N";
	from node:316;
	to node:357;
	length 202.543436451791;
	configuration line_configuration:446;
}

object overhead_line:472 {
	name 57.10674.4_L;
	phases "C|N";
	from node:357;
	to node:386;
	length 253.084952475903;
	configuration line_configuration:446;
}

object overhead_line:473 {
	name 57.10675.1_L;
	phases "C|N";
	from node:437;
	to node:259;
	length 189.648832104127;