// $Id: R4-25.00-1.glm 228 2009-05-27 18:16:10Z ychen $ 
//*********************************************

clock { 
	 timezone EST+5EDT;
	 timestamp '2000-01-01 0:00:00';
}

//*********************************************
// modules
module powerflow;


object fuse:566 {
	name R4-25-00-1_fuse_1;
	phases "CN";
	from R4-25-00-1_node_206;
	to R4-25-00-1_node_21;
	current_limit 3000.0;
	status CLOSED;
}

object fuse:598 {
	name R4-25-00-1_fuse_2;
	phases "CN";
	from R4-25-00-1_node_116;
	to R4-25-00-1_node_32;
	current_limit 3000.0;
	status CLOSED;
}

object fuse:604 {
	name R4-25-00-1_fuse_3;
	phases "CN";
	from R4-25-00-1_node_73;
	to R4-25-00-1_node_5;
	current_limit 3000.0;
	status CLOSED;
}

object fuse:606 {
	name R4-25-00-1_fuse_4;
	phases "CN";
	from R4-25-00-1_node_41;
	to R4-25-00-1_node_27;
	current_limit 3000.0;
	status CLOSED;
}

object fuse:615 {
	name R4-25-00-1_fuse_5;
	phases "CN";
	from R4-25-00-1_node_41;
	to R4-25-00-1_node_19;
	current_limit 3000.0;
	status CLOSED;
}

object fuse:617 {
	name R4-25-00-1_fuse_6;
	phases "CN";
	from R4-25-00-1_node_210;
	to R4-25-00-1_node_29;
	current_limit 3000.0;
	status CLOSED;
}

object fuse:620 {
	name R4-25-00-1_fuse_7;
	phases "CN";
	from R4-25-00-1_node_186;
	to R4-25-00-1_node_16;
	current_limit 3000.0;
	status CLOSED;
}

object fuse:622 {
	name R4-25-00-1_fuse_8;
	phases "CN";
	from R4-25-00-1_node_106;
	to R4-25-00-1_node_13;
	current_limit 3000.0;
	status CLOSED;
}

object fuse:624 {
	name R4-25-00-1_fuse_9;
	phases "CN";
	from R4-25-00-1_node_216;
	to R4-25-00-1_node_28;
	current_limit 3000.0;
	status CLOSED;
}

object fuse:626 {
	name R4-25-00-1_fuse_10;
	phases "CN";
	from R4-25-00-1_node_172;
	to R4-25-00-1_node_24;
	current_limit 3000.0;
	status CLOSED;
}

object fuse:628 {
	name R4-25-00-1_fuse_11;
	phases "BN";
	from R4-25-00-1_node_202;
	to R4-25-00-1_node_12;
	current_limit 3000.0;
	status CLOSED;
}

object fuse:636 {
	name R4-25-00-1_fuse_12;
	phases "CN";
	from R4-25-00-1_node_203;
	to R4-25-00-1_node_26;
	current_limit 3000.0;
	status CLOSED;
}

object fuse:638 {
	name R4-25-00-1_fuse_13;
	phases "BN";
	from R4-25-00-1_node_141;
	to R4-25-00-1_node_22;
	current_limit 3000.0;
	status CLOSED;
}

object fuse:640 {
	name R4-25-00-1_fuse_14;
	phases "AN";
	from R4-25-00-1_node_221;
	to R4-25-00-1_node_18;
	current_limit 3000.0;
	status CLOSED;
}

object fuse:642 {
	name R4-25-00-1_fuse_15;
	phases "AN";
	from R4-25-00-1_node_221;
	to R4-25-00-1_node_25;
	current_limit 3000.0;
	status CLOSED;
}

object fuse:644 {
	name R4-25-00-1_fuse_16;
	phases "BN";
	from R4-25-00-1_node_194;
	to R4-25-00-1_node_11;
	current_limit 3000.0;
	status CLOSED;
}

object fuse:646 {
	name R4-25-00-1_fuse_17;
	phases "CN";
	from R4-25-00-1_node_77;
	to R4-25-00-1_node_9;
	current_limit 3000.0;
	status CLOSED;
}

object fuse:651 {
	name R4-25-00-1_fuse_18;
	phases "AN";
	from R4-25-00-1_node_93;
	to R4-25-00-1_node_15;
	current_limit 3000.0;
	status CLOSED;
}

object fuse:653 {
	name R4-25-00-1_fuse_19;
	phases "CN";
	from R4-25-00-1_node_213;
	to R4-25-00-1_node_30;
	current_limit 3000.0;
	status CLOSED;
}

object fuse:656 {
	name R4-25-00-1_fuse_20;
	phases "CN";
	from R4-25-00-1_node_169;
	to R4-25-00-1_node_31;
	current_limit 3000.0;
	status CLOSED;
}

object fuse:670 {
	name R4-25-00-1_fuse_21;
	phases "CN";
	from R4-25-00-1_node_181;
	to R4-25-00-1_node_6;
	current_limit 3000.0;
	status CLOSED;
}

object fuse:672 {
	name R4-25-00-1_fuse_22;
	phases "CN";
	from R4-25-00-1_node_64;
	to R4-25-00-1_node_14;
	current_limit 3000.0;
	status CLOSED;
}

object fuse:675 {
	name R4-25-00-1_fuse_23;
	phases "CN";
	from R4-25-00-1_node_184;
	to R4-25-00-1_node_8;
	current_limit 3000.0;
	status CLOSED;
}

object fuse:677 {
	name R4-25-00-1_fuse_24;
	phases "CN";
	from R4-25-00-1_node_168;
	to R4-25-00-1_node_23;
	current_limit 3000.0;
	status CLOSED;
}

object fuse:679 {
	name R4-25-00-1_fuse_25;
	phases "CN";
	from R4-25-00-1_node_122;
	to R4-25-00-1_node_17;
	current_limit 3000.0;
	status CLOSED;
}

object fuse:681 {
	name R4-25-00-1_fuse_26;
	phases "CN";
	from R4-25-00-1_node_162;
	to R4-25-00-1_node_10;
	current_limit 3000.0;
	status CLOSED;
}

object fuse:683 {
	name R4-25-00-1_fuse_27;
	phases "CN";
	from R4-25-00-1_node_164;
	to R4-25-00-1_node_7;
	current_limit 3000.0;
	status CLOSED;
}

object fuse:690 {
	name R4-25-00-1_fuse_28;
	phases "CN";
	from R4-25-00-1_node_195;
	to R4-25-00-1_node_20;
	current_limit 3000.0;
	status CLOSED;
}


object line_configuration:444 {
	conductor_B overhead_line_conductor:16;
	conductor_N overhead_line_conductor:16;
	spacing line_spacing:443;
}

object line_configuration:446 {
	conductor_C overhead_line_conductor:16;
	conductor_N overhead_line_conductor:16;
	spacing line_spacing:445;
}

object line_configuration:448 {
	conductor_A overhead_line_conductor:29;
	conductor_B overhead_line_conductor:29;
	conductor_C overhead_line_conductor:29;
	conductor_N overhead_line_conductor:29;
	spacing line_spacing:447;
}

object line_configuration:449 {
	conductor_B overhead_line_conductor:11;
	conductor_N overhead_line_conductor:11;
	spacing line_spacing:443;
}

object line_configuration:451 {
	conductor_A overhead_line_conductor:16;
	conductor_N overhead_line_conductor:16;
	spacing line_spacing:450;
}

object line_configuration:452 {
	conductor_C overhead_line_conductor:19;
	conductor_N overhead_line_conductor:19;
	spacing line_spacing:445;
}

object line_configuration:453 {
	conductor_C overhead_line_conductor:19;
	conductor_N overhead_line_conductor:19;
	spacing line_spacing:445;
}

object line_configuration:455 {
	conductor_A overhead_line_conductor:16;
	conductor_C overhead_line_conductor:16;
	conductor_N overhead_line_conductor:16;
	spacing line_spacing:454;
}

object line_configuration:457 {
	conductor_C underground_line_conductor:44;
	conductor_N underground_line_conductor:44;
	spacing line_spacing:456;
}

object line_configuration:458 {
	conductor_C underground_line_conductor:44;
	conductor_N underground_line_conductor:44;
	spacing line_spacing:445;
}

object line_configuration:460 {
	conductor_A underground_line_conductor:44;
	conductor_N underground_line_conductor:44;
	spacing line_spacing:459;
}

object line_configuration:461 {
	conductor_A overhead_line_conductor:11;
	conductor_N overhead_line_conductor:11;
	spacing line_spacing:450;
}

object line_configuration:463 {
	conductor_A overhead_line_conductor:29;
	conductor_B overhead_line_conductor:29;
	conductor_C overhead_line_conductor:29;
	conductor_N overhead_line_conductor:29;
	spacing line_spacing:462;
}


object line_spacing:443 {
	distance_BN 48.0 in;
}

object line_spacing:445 {
	distance_CN 48.0 in;
}

object line_spacing:447 {
	distance_AB 57.6 in;
	distance_BC 57.6 in;
	distance_AC 57.6 in;
	distance_AN 48.0 in;
	distance_BN 48.0 in;
	distance_CN 48.0 in;
}

object line_spacing:450 {
	distance_AN 48.0 in;
}

object line_spacing:454 {
	distance_AC 51.6 in;
	distance_AN 48.0 in;
	distance_CN 48.0 in;
}

object line_spacing:456 {
	distance_CN 0.0 in;
}

object line_spacing:459 {
	distance_AN 0.0 in;
}

object line_spacing:462 {
	distance_AB 48.0 in;
	distance_BC 48.0 in;
	distance_AC 48.0 in;
	distance_AN 48.0 in;
	distance_BN 48.0 in;
	distance_CN 48.0 in;
}


// Meter at feeder
object meter:176 {
	name R4-25-00-1_meter_1;
	phases "ABCN";
	nominal_voltage 14376.022;
	voltage_A 14376.022+0.0j;
	voltage_B -7188.011-12450.000j;
	voltage_C -7188.011+12450.000j;
}


object node:179 {
	name R4-25-00-1_node_1;
	phases "ABCN";
	nominal_voltage 14376.022;
	voltage_A 14376.022+0.0j;
	voltage_B -7188.011-12450.000j;
	voltage_C -7188.011+12450.000j;
}

object node:177 {
	name R4-25-00-1_node_2;
	phases "ABCN";
	nominal_voltage 14376.022;
	voltage_A 14376.022+0.0j;
	voltage_B -7188.011-12450.000j;
	voltage_C -7188.011+12450.000j;
}

object node:180 {
	name R4-25-00-1_node_3;
	phases "ABCN";
	nominal_voltage 14376.022;
	voltage_A 14376.022+0.0j;
	voltage_B -7188.011-12450.000j;
	voltage_C -7188.011+12450.000j;
}

object node:178 {
	name R4-25-00-1_node_4;
	phases "ABCN";
	nominal_voltage 14376.022;
	voltage_A 14376.022+0.0j;
	voltage_B -7188.011-12450.000j;
	voltage_C -7188.011+12450.000j;
}

object node:191 {
	name R4-25-00-1_node_5;
	phases "CN";
	nominal_voltage 14376.022;
	voltage_C -7188.011+12450.000j;
}

object node:181 {
	name R4-25-00-1_node_6;
	phases "CN";
	nominal_voltage 14376.022;
	voltage_C -7188.011+12450.000j;
}

object node:192 {
	name R4-25-00-1_node_7;
	phases "CN";
	nominal_voltage 14376.022;
	voltage_C -7188.011+12450.000j;
}

object node:193 {
	name R4-25-00-1_node_8;
	phases "CN";
	nominal_voltage 14376.022;
	voltage_C -7188.011+12450.000j;
}

object node:194 {
	name R4-25-00-1_node_9;
	phases "CN";
	nominal_voltage 14376.022;
	voltage_C -7188.011+12450.000j;
}

object node:195 {
	name R4-25-00-1_node_10;
	phases "CN";
	nominal_voltage 14376.022;
	voltage_C -7188.011+12450.000j;
}

object node:182 {
	name R4-25-00-1_node_11;
	phases "BN";
	nominal_voltage 14376.022;
	voltage_B -7188.011-12450.000j;
}

object node:196 {
	name R4-25-00-1_node_12;
	phases "BN";
	nominal_voltage 14376.022;
	voltage_B -7188.011-12450.000j;
}

object node:197 {
	name R4-25-00-1_node_13;
	phases "CN";
	nominal_voltage 14376.022;
	voltage_C -7188.011+12450.000j;
}

object node:183 {
	name R4-25-00-1_node_14;
	phases "CN";
	nominal_voltage 14376.022;
	voltage_C -7188.011+12450.000j;
}

object node:198 {
	name R4-25-00-1_node_15;
	phases "AN";
	nominal_voltage 14376.022;
	voltage_A 14376.022+0.0j;
}

object node:184 {
	name R4-25-00-1_node_16;
	phases "CN";
	nominal_voltage 14376.022;
	voltage_C -7188.011+12450.000j;
}

object node:199 {
	name R4-25-00-1_node_17;
	phases "CN";
	nominal_voltage 14376.022;
	voltage_C -7188.011+12450.000j;
}

object node:200 {
	name R4-25-00-1_node_18;
	phases "AN";
	nominal_voltage 14376.022;
	voltage_A 14376.022+0.0j;
}

object node:201 {
	name R4-25-00-1_node_19;
	phases "CN";
	nominal_voltage 14376.022;
	voltage_C -7188.011+12450.000j;
}

object node:185 {
	name R4-25-00-1_node_20;
	phases "CN";
	nominal_voltage 14376.022;
	voltage_C -7188.011+12450.000j;
}

object node:186 {
	name R4-25-00-1_node_21;
	phases "CN";
	nominal_voltage 14376.022;
	voltage_C -7188.011+12450.000j;
}

object node:187 {
	name R4-25-00-1_node_22;
	phases "BN";
	nominal_voltage 14376.022;
	voltage_B -7188.011-12450.000j;
}

object node:202 {
	name R4-25-00-1_node_23;
	phases "CN";
	nominal_voltage 14376.022;
	voltage_C -7188.011+12450.000j;
}

object node:203 {
	name R4-25-00-1_node_24;
	phases "CN";
	nominal_voltage 14376.022;
	voltage_C -7188.011+12450.000j;
}

object node:188 {
	name R4-25-00-1_node_25;
	phases "AN";
	nominal_voltage 14376.022;
	voltage_A 14376.022+0.0j;
}

object node:204 {
	name R4-25-00-1_node_26;
	phases "CN";
	nominal_voltage 14376.022;
	voltage_C -7188.011+12450.000j;
}

object node:189 {
	name R4-25-00-1_node_27;
	phases "CN";
	nominal_voltage 14376.022;
	voltage_C -7188.011+12450.000j;
}

object node:205 {
	name R4-25-00-1_node_28;
	phases "CN";
	nominal_voltage 14376.022;
	voltage_C -7188.011+12450.000j;
}

object node:206 {
	name R4-25-00-1_node_29;
	phases "CN";
	nominal_voltage 14376.022;
	voltage_C -7188.011+12450.000j;
}

object node:190 {
	name R4-25-00-1_node_30;
	phases "CN";
	nominal_voltage 14376.022;
	voltage_C -7188.011+12450.000j;
}

object node:207 {
	name R4-25-00-1_node_31;
	phases "CN";
	nominal_voltage 14376.022;
	voltage_C -7188.011+12450.000j;
}

object node:208 {
	name R4-25-00-1_node_32;
	phases "CN";
	nominal_voltage 14376.022;
	voltage_C -7188.011+12450.000j;
}

object node:209 {
	name R4-25-00-1_node_33;
	phases "CN";
	nominal_voltage 14376.022;
	voltage_C -7188.011+12450.000j;
}

object node:290 {
	name R4-25-00-1_node_34;
	phases "CN";
	nominal_voltage 14376.022;
	voltage_C -7188.011+12450.000j;
}

object node:291 {
	name R4-25-00-1_node_35;
	phases "CN";
	nominal_voltage 14376.022;
	voltage_C -7188.011+12450.000j;
}

object node:292 {
	name R4-25-00-1_node_36;
	phases "AN";
	nominal_voltage 14376.022;
	voltage_A 14376.022+0.0j;
}

object node:293 {
	name R4-25-00-1_node_37;
	phases "CN";
	nominal_voltage 14376.022;
	voltage_C -7188.011+12450.000j;
}

object node:294 {
	name R4-25-00-1_node_38;
	phases "CN";
	nominal_voltage 14376.022;
	voltage_C -7188.011+12450.000j;
}

object node:296 {
	name R4-25-00-1_node_39;
	phases "ABCN";
	nominal_voltage 14376.022;
	voltage_A 14376.022+0.0j;
	voltage_B -7188.011-12450.000j;
	voltage_C -7188.011+12450.000j;
}

object node:297 {
	name R4-25-00-1_node_40;
	phases "CN";
	nominal_voltage 14376.022;
	voltage_C -7188.011+12450.000j;
}

object node:210 {
	name R4-25-00-1_node_41;
	phases "CN";
	nominal_voltage 14376.022;
	voltage_C -7188.011+12450.000j;
}

object node:298 {
	name R4-25-00-1_node_42;
	phases "BN";
	nominal_voltage 14376.022;
	voltage_B -7188.011-12450.000j;
}

object node:211 {
	name R4-25-00-1_node_43;
	phases "BN";
	nominal_voltage 14376.022;
	voltage_B -7188.011-12450.000j;
}

object node:212 {
	name R4-25-00-1_node_44;
	phases "BN";
	nominal_voltage 14376.022;
	voltage_B -7188.011-12450.000j;
}

object node:213 {
	name R4-25-00-1_node_45;
	phases "CN";
	nominal_voltage 14376.022;
	voltage_C -7188.011+12450.000j;
}

object node:299 {
	name R4-25-00-1_node_46;
	phases "CN";
	nominal_voltage 14376.022;
	voltage_C -7188.011+12450.000j;
}

object node:300 {
	name R4-25-00-1_node_47;
	phases "CN";
	nominal_voltage 14376.022;
	voltage_C -7188.011+12450.000j;
}

object node:215 {
	name R4-25-00-1_node_48;
	phases "CN";
	nominal_voltage 14376.022;
	voltage_C -7188.011+12450.000j;
}

object node:301 {
	name R4-25-00-1_node_49;
	phases "ABCN";
	nominal_voltage 14376.022;
	voltage_A 14376.022+0.0j;
	voltage_B -7188.011-12450.000j;
	voltage_C -7188.011+12450.000j;
}

object node:302 {
	name R4-25-00-1_node_50;
	phases "CN";
	nominal_voltage 14376.022;
	voltage_C -7188.011+12450.000j;
}

object node:216 {
	name R4-25-00-1_node_51;
	phases "CN";
	nominal_voltage 14376.022;
	voltage_C -7188.011+12450.000j;
}

object node:218 {
	name R4-25-00-1_node_52;
	phases "AN";
	nominal_voltage 14376.022;
	voltage_A 14376.022+0.0j;
}

object node:217 {
	name R4-25-00-1_node_53;
	phases "AN";
	nominal_voltage 14376.022;
	voltage_A 14376.022+0.0j;
}

object node:303 {
	name R4-25-00-1_node_54;
	phases "CN";
	nominal_voltage 14376.022;
	voltage_C -7188.011+12450.000j;
}

object node:219 {
	name R4-25-00-1_node_55;
	phases "BN";
	nominal_voltage 14376.022;
	voltage_B -7188.011-12450.000j;
}

object node:220 {
	name R4-25-00-1_node_56;
	phases "BN";
	nominal_voltage 14376.022;
	voltage_B -7188.011-12450.000j;
}

object node:304 {
	name R4-25-00-1_node_57;
	phases "BN";
	nominal_voltage 14376.022;
	voltage_B -7188.011-12450.000j;
}

object node:305 {
	name R4-25-00-1_node_58;
	phases "CN";
	nominal_voltage 14376.022;
	voltage_C -7188.011+12450.000j;
}

object node:221 {
	name R4-25-00-1_node_59;
	phases "CN";
	nominal_voltage 14376.022;
	voltage_C -7188.011+12450.000j;
}

object node:306 {
	name R4-25-00-1_node_60;
	phases "CN";
	nominal_voltage 14376.022;
	voltage_C -7188.011+12450.000j;
}

object node:223 {
	name R4-25-00-1_node_61;
	phases "CN";
	nominal_voltage 14376.022;
	voltage_C -7188.011+12450.000j;
}

object node:225 {
	name R4-25-00-1_node_62;
	phases "CN";
	nominal_voltage 14376.022;
	voltage_C -7188.011+12450.000j;
}

object node:308 {
	name R4-25-00-1_node_63;
	phases "CN";
	nominal_voltage 14376.022;
	voltage_C -7188.011+12450.000j;
}

object node:226 {
	name R4-25-00-1_node_64;
	phases "CN";
	nominal_voltage 14376.022;
	voltage_C -7188.011+12450.000j;
}

object node:309 {
	name R4-25-00-1_node_65;
	phases "CN";
	nominal_voltage 14376.022;
	voltage_C -7188.011+12450.000j;
}

object node:311 {
	name R4-25-00-1_node_66;
	phases "CN";
	nominal_voltage 14376.022;
	voltage_C -7188.011+12450.000j;
}

object node:312 {
	name R4-25-00-1_node_67;
	phases "CN";
	nominal_voltage 14376.022;
	voltage_C -7188.011+12450.000j;
}

object node:313 {
	name R4-25-00-1_node_68;
	phases "BN";
	nominal_voltage 14376.022;
	voltage_B -7188.011-12450.000j;
}

object node:228 {
	name R4-25-00-1_node_69;
	phases "CN";
	nominal_voltage 14376.022;
	voltage_C -7188.011+12450.000j;
}

object node:229 {
	name R4-25-00-1_node_70;
	phases "AN";
	nominal_voltage 14376.022;
	voltage_A 14376.022+0.0j;
}

object node:230 {
	name R4-25-00-1_node_71;
	phases "BN";
	nominal_voltage 14376.022;
	voltage_B -7188.011-12450.000j;
}

object node:314 {
	name R4-25-00-1_node_72;
	phases "ABCN";
	nominal_voltage 14376.022;
	voltage_A 14376.022+0.0j;
	voltage_B -7188.011-12450.000j;
	voltage_C -7188.011+12450.000j;
}

object node:316 {
	name R4-25-00-1_node_73;
	phases "CN";
	nominal_voltage 14376.022;
	voltage_C -7188.011+12450.000j;
}

object node:232 {
	name R4-25-00-1_node_74;
	phases "BN";
	nominal_voltage 14376.022;
	voltage_B -7188.011-12450.000j;
}

object node:233 {
	name R4-25-00-1_node_75;
	phases "CN";
	nominal_voltage 14376.022;
	voltage_C -7188.011+12450.000j;
}

object node:234 {
	name R4-25-00-1_node_76;
	phases "BN";
	nominal_voltage 14376.022;
	voltage_B -7188.011-12450.000j;
}

object node:317 {
	name R4-25-00-1_node_77;
	phases "ACN";
	nominal_voltage 14376.022;
	voltage_A 14376.022+0.0j;
	voltage_C -7188.011+12450.000j;
}

object node:318 {
	name R4-25-00-1_node_78;
	phases "CN";
	nominal_voltage 14376.022;
	voltage_C -7188.011+12450.000j;
}

object node:319 {
	name R4-25-00-1_node_79;
	phases "BN";
	nominal_voltage 14376.022;
	voltage_B -7188.011-12450.000j;
}

object node:320 {
	name R4-25-00-1_node_80;
	phases "BN";
	nominal_voltage 14376.022;
	voltage_B -7188.011-12450.000j;
}

object node:235 {
	name R4-25-00-1_node_81;
	phases "CN";
	nominal_voltage 14376.022;
	voltage_C -7188.011+12450.000j;
}

object node:322 {
	name R4-25-00-1_node_82;
	phases "BN";
	nominal_voltage 14376.022;
	voltage_B -7188.011-12450.000j;
}

object node:236 {
	name R4-25-00-1_node_83;
	phases "CN";
	nominal_voltage 14376.022;
	voltage_C -7188.011+12450.000j;
}

object node:323 {
	name R4-25-00-1_node_84;
	phases "CN";
	nominal_voltage 14376.022;
	voltage_C -7188.011+12450.000j;
}

object node:324 {
	name R4-25-00-1_node_85;
	phases "CN";
	nominal_voltage 14376.022;
	voltage_C -7188.011+12450.000j;
}

object node:238 {
	name R4-25-00-1_node_86;
	phases "CN";
	nominal_voltage 14376.022;
	voltage_C -7188.011+12450.000j;
}

object node:240 {
	name R4-25-00-1_node_87;
	phases "BN";
	nominal_voltage 14376.022;
	voltage_B -7188.011-12450.000j;
}

object node:241 {
	name R4-25-00-1_node_88;
	phases "CN";
	nominal_voltage 14376.022;
	voltage_C -7188.011+12450.000j;
}

object node:325 {
	name R4-25-00-1_node_89;
	phases "CN";
	nominal_voltage 14376.022;
	voltage_C -7188.011+12450.000j;
}

object node:326 {
	name R4-25-00-1_node_90;
	phases "CN";
	nominal_voltage 14376.022;
	voltage_C -7188.011+12450.000j;
}

object node:327 {
	name R4-25-00-1_node_91;
	phases "CN";
	nominal_voltage 14376.022;
	voltage_C -7188.011+12450.000j;
}

object node:328 {
	name R4-25-00-1_node_92;
	phases "CN";
	nominal_voltage 14376.022;
	voltage_C -7188.011+12450.000j;
}

object node:243 {
	name R4-25-00-1_node_93;
	phases "ABCN";
	nominal_voltage 14376.022;
	voltage_A 14376.022+0.0j;
	voltage_B -7188.011-12450.000j;
	voltage_C -7188.011+12450.000j;
}

object node:244 {
	name R4-25-00-1_node_94;
	phases "CN";
	nominal_voltage 14376.022;
	voltage_C -7188.011+12450.000j;
}

object node:332 {
	name R4-25-00-1_node_95;
	phases "CN";
	nominal_voltage 14376.022;
	voltage_C -7188.011+12450.000j;
}

object node:331 {
	name R4-25-00-1_node_96;
	phases "CN";
	nominal_voltage 14376.022;
	voltage_C -7188.011+12450.000j;
}

object node:330 {
	name R4-25-00-1_node_97;
	phases "BN";
	nominal_voltage 14376.022;
	voltage_B -7188.011-12450.000j;
}

object node:333 {
	name R4-25-00-1_node_98;
	phases "CN";
	nominal_voltage 14376.022;
	voltage_C -7188.011+12450.000j;
}

object node:334 {
	name R4-25-00-1_node_99;
	phases "CN";
	nominal_voltage 14376.022;
	voltage_C -7188.011+12450.000j;
}

object node:246 {
	name R4-25-00-1_node_100;
	phases "BN";
	nominal_voltage 14376.022;
	voltage_B -7188.011-12450.000j;
}

object node:247 {
	name R4-25-00-1_node_101;
	phases "CN";
	nominal_voltage 14376.022;
	voltage_C -7188.011+12450.000j;
}

object node:248 {
	name R4-25-00-1_node_102;
	phases "CN";
	nominal_voltage 14376.022;
	voltage_C -7188.011+12450.000j;
}

object node:335 {
	name R4-25-00-1_node_103;
	phases "ABCN";
	nominal_voltage 14376.022;
	voltage_A 14376.022+0.0j;
	voltage_B -7188.011-12450.000j;
	voltage_C -7188.011+12450.000j;
}

object node:337 {
	name R4-25-00-1_node_104;
	phases "CN";
	nominal_voltage 14376.022;
	voltage_C -7188.011+12450.000j;
}

object node:339 {
	name R4-25-00-1_node_105;
	phases "ABCN";
	nominal_voltage 14376.022;
	voltage_A 14376.022+0.0j;
	voltage_B -7188.011-12450.000j;
	voltage_C -7188.011+12450.000j;
}

object node:251 {
	name R4-25-00-1_node_106;
	phases "CN";
	nominal_voltage 14376.022;
	voltage_C -7188.011+12450.000j;
}

object node:340 {
	name R4-25-00-1_node_107;
	phases "CN";
	nominal_voltage 14376.022;
	voltage_C -7188.011+12450.000j;
}

object node:341 {
	name R4-25-00-1_node_108;
	phases "CN";
	nominal_voltage 14376.022;
	voltage_C -7188.011+12450.000j;
}

object node:252 {
	name R4-25-00-1_node_109;
	phases "CN";
	nominal_voltage 14376.022;
	voltage_C -7188.011+12450.000j;
}

object node:342 {
	name R4-25-00-1_node_110;
	phases "CN";
	nominal_voltage 14376.022;
	voltage_C -7188.011+12450.000j;
}

object node:255 {
	name R4-25-00-1_node_111;
	phases "CN";
	nominal_voltage 14376.022;
	voltage_C -7188.011+12450.000j;
}

object node:256 {
	name R4-25-00-1_node_112;
	phases "CN";
	nominal_voltage 14376.022;
	voltage_C -7188.011+12450.000j;
}

object node:257 {
	name R4-25-00-1_node_113;
	phases "CN";
	nominal_voltage 14376.022;
	voltage_C -7188.011+12450.000j;
}

object node:258 {
	name R4-25-00-1_node_114;
	phases "CN";
	nominal_voltage 14376.022;
	voltage_C -7188.011+12450.000j;
}

object node:345 {
	name R4-25-00-1_node_115;
	phases "CN";
	nominal_voltage 14376.022;
	voltage_C -7188.011+12450.000j;
}

object node:259 {
	name R4-25-00-1_node_116;
	phases "CN";
	nominal_voltage 14376.022;
	voltage_C -7188.011+12450.000j;
}

object node:260 {
	name R4-25-00-1_node_117;
	phases "CN";
	nominal_voltage 14376.022;
	voltage_C -7188.011+12450.000j;
}

object node:261 {
	name R4-25-00-1_node_118;
	phases "BN";
	nominal_voltage 14376.022;
	voltage_B -7188.011-12450.000j;
}

object node:262 {
	name R4-25-00-1_node_119;
	phases "CN";
	nominal_voltage 14376.022;
	voltage_C -7188.011+12450.000j;
}

object node:346 {
	name R4-25-00-1_node_120;
	phases "CN";
	nominal_voltage 14376.022;
	voltage_C -7188.011+12450.000j;
}

object node:347 {
	name R4-25-00-1_node_121;
	phases "BN";
	nominal_voltage 14376.022;
	voltage_B -7188.011-12450.000j;
}

object node:263 {
	name R4-25-00-1_node_122;
	phases "CN";
	nominal_voltage 14376.022;
	voltage_C -7188.011+12450.000j;
}

object node:264 {
	name R4-25-00-1_node_123;
	phases "CN";
	nominal_voltage 14376.022;
	voltage_C -7188.011+12450.000j;
}

object node:265 {
	name R4-25-00-1_node_124;
	phases "CN";
	nominal_voltage 14376.022;
	voltage_C -7188.011+12450.000j;
}

object node:348 {
	name R4-25-00-1_node_125;
	phases "BN";
	nominal_voltage 14376.022;
	voltage_B -7188.011-12450.000j;
}

object node:266 {
	name R4-25-00-1_node_126;
	phases "CN";
	nominal_voltage 14376.022;
	voltage_C -7188.011+12450.000j;
}

object node:349 {
	name R4-25-00-1_node_127;
	phases "CN";
	nominal_voltage 14376.022;
	voltage_C -7188.011+12450.000j;
}

object node:350 {
	name R4-25-00-1_node_128;
	phases "CN";
	nominal_voltage 14376.022;
	voltage_C -7188.011+12450.000j;
}

object node:267 {
	name R4-25-00-1_node_129;
	phases "ABCN";
	nominal_voltage 14376.022;
	voltage_A 14376.022+0.0j;
	voltage_B -7188.011-12450.000j;
	voltage_C -7188.011+12450.000j;
}

object node:351 {
	name R4-25-00-1_node_130;
	phases "CN";
	nominal_voltage 14376.022;
	voltage_C -7188.011+12450.000j;
}

object node:268 {
	name R4-25-00-1_node_131;
	phases "CN";
	nominal_voltage 14376.022;
	voltage_C -7188.011+12450.000j;
}

object node:269 {
	name R4-25-00-1_node_132;
	phases "BN";
	nominal_voltage 14376.022;
	voltage_B -7188.011-12450.000j;
}

object node:353 {
	name R4-25-00-1_node_133;
	phases "CN";
	nominal_voltage 14376.022;
	voltage_C -7188.011+12450.000j;
}

object node:354 {
	name R4-25-00-1_node_134;
	phases "CN";
	nominal_voltage 14376.022;
	voltage_C -7188.011+12450.000j;
}

object node:355 {
	name R4-25-00-1_node_135;
	phases "CN";
	nominal_voltage 14376.022;
	voltage_C -7188.011+12450.000j;
}

object node:356 {
	name R4-25-00-1_node_136;
	phases "CN";
	nominal_voltage 14376.022;
	voltage_C -7188.011+12450.000j;
}

object node:357 {
	name R4-25-00-1_node_137;
	phases "CN";
	nominal_voltage 14376.022;
	voltage_C -7188.011+12450.000j;
}

object node:359 {
	name R4-25-00-1_node_138;
	phases "CN";
	nominal_voltage 14376.022;
	voltage_C -7188.011+12450.000j;
}

object node:271 {
	name R4-25-00-1_node_139;
	phases "CN";
	nominal_voltage 14376.022;
	voltage_C -7188.011+12450.000j;
}

object node:360 {
	name R4-25-00-1_node_140;
	phases "CN";
	nominal_voltage 14376.022;
	voltage_C -7188.011+12450.000j;
}

object node:274 {
	name R4-25-00-1_node_141;
	phases "ABCN";
	nominal_voltage 14376.022;
	voltage_A 14376.022+0.0j;
	voltage_B -7188.011-12450.000j;
	voltage_C -7188.011+12450.000j;
}

object node:277 {
	name R4-25-00-1_node_142;
	phases "AN";
	nominal_voltage 14376.022;
	voltage_A 14376.022+0.0j;
}

object node:276 {
	name R4-25-00-1_node_143;
	phases "CN";
	nominal_voltage 14376.022;
	voltage_C -7188.011+12450.000j;
}

object node:362 {
	name R4-25-00-1_node_144;
	phases "BN";
	nominal_voltage 14376.022;
	voltage_B -7188.011-12450.000j;
}

object node:363 {
	name R4-25-00-1_node_145;
	phases "CN";
	nominal_voltage 14376.022;
	voltage_C -7188.011+12450.000j;
}

object node:278 {
	name R4-25-00-1_node_146;
	phases "CN";
	nominal_voltage 14376.022;
	voltage_C -7188.011+12450.000j;
}

object node:365 {
	name R4-25-00-1_node_147;
	phases "CN";
	nominal_voltage 14376.022;
	voltage_C -7188.011+12450.000j;
}

object node:280 {
	name R4-25-00-1_node_148;
	phases "CN";
	nominal_voltage 14376.022;
	voltage_C -7188.011+12450.000j;
}

object node:367 {
	name R4-25-00-1_node_149;
	phases "BN";
	nominal_voltage 14376.022;
	voltage_B -7188.011-12450.000j;
}

object node:282 {
	name R4-25-00-1_node_150;
	phases "CN";
	nominal_voltage 14376.022;
	voltage_C -7188.011+12450.000j;
}

object node:368 {
	name R4-25-00-1_node_151;
	phases "BN";
	nominal_voltage 14376.022;
	voltage_B -7188.011-12450.000j;
}

object node:369 {
	name R4-25-00-1_node_152;
	phases "CN";
	nominal_voltage 14376.022;
	voltage_C -7188.011+12450.000j;
}

object node:285 {
	name R4-25-00-1_node_153;
	phases "CN";
	nominal_voltage 14376.022;
	voltage_C -7188.011+12450.000j;
}

object node:284 {
	name R4-25-00-1_node_154;
	phases "CN";
	nominal_voltage 14376.022;
	voltage_C -7188.011+12450.000j;
}

object node:287 {
	name R4-25-00-1_node_155;
	phases "CN";
	nominal_voltage 14376.022;
	voltage_C -7188.011+12450.000j;
}

object node:288 {
	name R4-25-00-1_node_156;
	phases "CN";
	nominal_voltage 14376.022;
	voltage_C -7188.011+12450.000j;
}

object node:289 {
	name R4-25-00-1_node_157;
	phases "CN";
	nominal_voltage 14376.022;
	voltage_C -7188.011+12450.000j;
}

object node:371 {
	name R4-25-00-1_node_158;
	phases "CN";
	nominal_voltage 14376.022;
	voltage_C -7188.011+12450.000j;
}

object node:373 {
	name R4-25-00-1_node_159;
	phases "BN";
	nominal_voltage 14376.022;
	voltage_B -7188.011-12450.000j;
}

object node:372 {
	name R4-25-00-1_node_160;
	phases "ABCN";
	nominal_voltage 14376.022;
	voltage_A 14376.022+0.0j;
	voltage_B -7188.011-12450.000j;
	voltage_C -7188.011+12450.000j;
}

object node:404 {
	name R4-25-00-1_node_161;
	phases "ABCN";
	nominal_voltage 14376.022;
	voltage_A 14376.022+0.0j;
	voltage_B -7188.011-12450.000j;
	voltage_C -7188.011+12450.000j;
}

object node:374 {
	name R4-25-00-1_node_162;
	phases "CN";
	nominal_voltage 14376.022;
	voltage_C -7188.011+12450.000j;
}

object node:405 {
	name R4-25-00-1_node_163;
	phases "CN";
	nominal_voltage 14376.022;
	voltage_C -7188.011+12450.000j;
}

object node:375 {
	name R4-25-00-1_node_164;
	phases "CN";
	nominal_voltage 14376.022;
	voltage_C -7188.011+12450.000j;
}

object node:406 {
	name R4-25-00-1_node_165;
	phases "ABCN";