//*********************************************
// $Id: R5-12.47-1.glm 1132 2008-11-18 22:36:10Z dchassin $ 
//*********************************************

clock { 
	 timezone EST+5EDT;
	 timestamp '2000-01-01 0:00:00';
}

//*********************************************
// modules
module powerflow;


object triplex_line_conductor: {
	name 1/0 AA triplex;
	resistance 0.97;
	geometric_mean_radius 0.0111;
}

object triplex_line_configuration:1 {
	conductor_1 1/0 AA triplex;
	conductor_2 1/0 AA triplex;
	conductor_N 1/0 AA triplex;
	insulation_thickness 0.08;
	diameter 0.368;
}

object transformer:109  {
	phases "A|B|C|N";
	from 110592180ABC;
	to 110592180ABC_U_M;
	configuration transformer_configuration:83;
}

object meter:110 {
	name 110592180ABC_U_M;
	phases "ABCN";
	nominal_voltage 7967.434;
	voltage_A 7967.434+0.0j;
	voltage_B -3983.717-6900.000j;
	voltage_C -3983.717+6900.000j;
}
object transformer:111  {
	phases "A|B|C|N";
	from 110592180ABC;
	to 110592180ABC_U_M;
	configuration transformer_configuration:84;
}

object meter:112 {
	name 110592180ABC_U_M;
	phases "ABCN";
	nominal_voltage 7967.434;
	voltage_A 7967.434+0.0j;
	voltage_B -3983.717-6900.000j;
	voltage_C -3983.717+6900.000j;
}
object transformer:113  {
	phases "AS";
	from 110592407ABC;
	to 110592407ABC_UA_M;
	configuration transformer_configuration:53;
}

object triplex_meter:114 {
	name 110592407ABC_UA_M;
	phases "AS";
	nominal_voltage 120;
	voltage_1 120;
	voltage_2 120;
	voltage_N 0;
}

object triplex_node:115 {
	name 110592407ABC_UA_TX;
	parent 110592407ABC_UA_M;
	phases AS;
	nominal_voltage 120;
	latitude 49N45'44.239";
	longitude 117W52'0.670";
	power_1 62.4+26.7j;
	voltage_1 120;
	voltage_2 120;
	voltage_N 0;
}

object transformer:116  {
	phases "CS";
	from 110592407ABC;
	to 110592407ABC_UC_M;
	configuration transformer_configuration:75;
}

object triplex_meter:117 {
	name 110592407ABC_UC_M;
	phases "CS";
	nominal_voltage 120;
	voltage_1 -60.000+103.923j;
	voltage_2 -60.000+103.923j;
	voltage_N 0;
}

object triplex_node:118 {
	name 110592407ABC_UC_TX;
	parent 110592407ABC_UC_M;
	phases AS;
	nominal_voltage 120;
	latitude 49N45'44.239";
	longitude 117W52'0.670";
	power_1 9.6+17.9j;
	voltage_1 -60.000+103.923j;
	voltage_2 -60.000+103.923j;
	voltage_N 0;
}

object transformer:119  {
	phases "BS";
	from 120969561B;
	to 120969561B_UB_M;
	configuration transformer_configuration:63;
}

object triplex_meter:120 {
	name 120969561B_UB_M;
	phases "BS";
	nominal_voltage 120;
	voltage_1 -60.000-103.923j;
	voltage_2 -60.000-103.923j;
	voltage_N 0;
}

object triplex_node:121 {
	name 120969561B_UB_TX;
	parent 120969561B_UB_M;
	phases BS;
	nominal_voltage 120;
	latitude 49N44'41.090";
	longitude 117W52'46.368";
	power_1 54.4+30.8j;
	voltage_1 -60.000-103.923j;
	voltage_2 -60.000-103.923j;
	voltage_N 0;
}

object transformer:122  {
	phases "BS";
	from 120969675BC;
	to 120969675BC_UB_M;
	configuration transformer_configuration:64;
}

object triplex_meter:123 {
	name 120969675BC_UB_M;
	phases "BS";
	nominal_voltage 120;
	voltage_1 -60.000-103.923j;
	voltage_2 -60.000-103.923j;
	voltage_N 0;
}

object triplex_node:124 {
	name 120969675BC_UB_TX;
	parent 120969675BC_UB_M;
	phases BS;
	nominal_voltage 120;
	latitude 49N45'10.387";
	longitude 117W52'46.152";
	power_1 62.4+34.9j;
	voltage_1 -60.000-103.923j;
	voltage_2 -60.000-103.923j;
	voltage_N 0;
}

object transformer:125  {
	phases "A|B|C|N";
	from 120970072ABC;
	to 120970072ABC_U_M;
	configuration transformer_configuration:89;
}

object meter:126 {
	name 120970072ABC_U_M;
	phases "ABCN";
	nominal_voltage 7967.434;
	voltage_A 7967.434+0.0j;
	voltage_B -3983.717-6900.000j;
	voltage_C -3983.717+6900.000j;
}
object transformer:127  {
	phases "A|B|C|N";
	from 120970149ABC;
	to 120970149ABC_U_M;
	configuration transformer_configuration:90;
}

object meter:128 {
	name 120970149ABC_U_M;
	phases "ABCN";
	nominal_voltage 7967.434;
	voltage_A 7967.434+0.0j;
	voltage_B -3983.717-6900.000j;
	voltage_C -3983.717+6900.000j;
}
object transformer:129  {
	phases "BS";
	from 82200637B;
	to 82200637B_UB_M;
	configuration transformer_configuration:64;
}

object triplex_meter:130 {
	name 82200637B_UB_M;
	phases "BS";
	nominal_voltage 120;
	voltage_1 -60.000-103.923j;
	voltage_2 -60.000-103.923j;
	voltage_N 0;
}

object triplex_node:131 {
	name 82200637B_UB_TX;
	parent 82200637B_UB_M;
	phases BS;
	nominal_voltage 120;
	latitude 49N45'1.079";
	longitude 117W53'3.839";
	power_1 52.9+30j;
	voltage_1 -60.000-103.923j;
	voltage_2 -60.000-103.923j;
	voltage_N 0;
}

object transformer:132  {
	phases "BS";
	from 82209066ABC;
	to 82209066ABC_UB_M;
	configuration transformer_configuration:64;
}

object triplex_meter:133 {
	name 82209066ABC_UB_M;
	phases "BS";
	nominal_voltage 120;
	voltage_1 -60.000-103.923j;
	voltage_2 -60.000-103.923j;
	voltage_N 0;
}

object triplex_node:134 {
	name 82209066ABC_UB_TX;
	parent 82209066ABC_UB_M;
	phases BS;
	nominal_voltage 120;
	latitude 49N45'9.385";
	longitude 117W52'19.318";
	power_1 68.6+35.1j;
	voltage_1 -60.000-103.923j;
	voltage_2 -60.000-103.923j;
	voltage_N 0;
}

object transformer:135  {
	phases "BS";
	from 82209094B;
	to 82209094B_UB_M;
	configuration transformer_configuration:65;
}

object triplex_meter:136 {
	name 82209094B_UB_M;
	phases "BS";
	nominal_voltage 120;
	voltage_1 -60.000-103.923j;
	voltage_2 -60.000-103.923j;
	voltage_N 0;
}

object triplex_node:137 {
	name 82209094B_UB_TX;
	parent 82209094B_UB_M;
	phases BS;
	nominal_voltage 120;
	latitude 49N45'9.121";
	longitude 117W52'16.338";
	power_1 248.4+140.8j;
	voltage_1 -60.000-103.923j;
	voltage_2 -60.000-103.923j;
	voltage_N 0;
}

object transformer:138  {
	phases "A|B|C|N";
	from 82209213ABC;
	to 82209213ABC_U_M;
	configuration transformer_configuration:90;
}

object meter:139 {
	name 82209213ABC_U_M;
	phases "ABCN";
	nominal_voltage 7967.434;
	voltage_A 7967.434+0.0j;
	voltage_B -3983.717-6900.000j;
	voltage_C -3983.717+6900.000j;
}
object transformer:140  {
	phases "AS";
	from 82209354ABC;
	to 82209354ABC_UA_M;
	configuration transformer_configuration:54;
}

object triplex_meter:141 {
	name 82209354ABC_UA_M;
	phases "AS";
	nominal_voltage 120;
	voltage_1 120;
	voltage_2 120;
	voltage_N 0;
}

object triplex_node:142 {
	name 82209354ABC_UA_TX;
	parent 82209354ABC_UA_M;
	phases AS;
	nominal_voltage 120;
	latitude 49N45'5.222";
	longitude 117W52'19.781";
	power_1 51.1+26.9j;
	voltage_1 120;
	voltage_2 120;
	voltage_N 0;
}

object transformer:143  {
	phases "CS";
	from 82209354ABC;
	to 82209354ABC_UC_M;
	configuration transformer_configuration:76;
}

object triplex_meter:144 {
	name 82209354ABC_UC_M;
	phases "CS";
	nominal_voltage 120;
	voltage_1 -60.000+103.923j;
	voltage_2 -60.000+103.923j;
	voltage_N 0;
}

object triplex_node:145 {
	name 82209354ABC_UC_TX;
	parent 82209354ABC_UC_M;
	phases AS;
	nominal_voltage 120;
	latitude 49N45'5.222";
	longitude 117W52'19.781";
	power_1 0+0j;
	voltage_1 -60.000+103.923j;
	voltage_2 -60.000+103.923j;
	voltage_N 0;
}

object transformer:146  {
	phases "BS";
	from 82209381ABC;
	to 82209381ABC_UB_M;
	configuration transformer_configuration:66;
}

object triplex_meter:147 {
	name 82209381ABC_UB_M;
	phases "BS";
	nominal_voltage 120;
	voltage_1 -60.000-103.923j;
	voltage_2 -60.000-103.923j;
	voltage_N 0;
}

object triplex_node:148 {
	name 82209381ABC_UB_TX;
	parent 82209381ABC_UB_M;
	phases BS;
	nominal_voltage 120;
	latitude 49N45'5.186";
	longitude 117W52'16.415";
	power_1 9+5.1j;
	voltage_1 -60.000-103.923j;
	voltage_2 -60.000-103.923j;
	voltage_N 0;
}

object transformer:149  {
	phases "A|B|C|N";
	from 82218455;
	to 82218455_U_M;
	configuration transformer_configuration:89;
}

object meter:150 {
	name 82218455_U_M;
	phases "ABCN";
	nominal_voltage 7967.434;
	voltage_A 7967.434+0.0j;
	voltage_B -3983.717-6900.000j;
	voltage_C -3983.717+6900.000j;
}
object transformer:151  {
	phases "A|B|C|N";
	from 82218825ABC;
	to 82218825ABC_U_M;
	configuration transformer_configuration:90;
}

object meter:152 {
	name 82218825ABC_U_M;
	phases "ABCN";
	nominal_voltage 7967.434;
	voltage_A 7967.434+0.0j;
	voltage_B -3983.717-6900.000j;
	voltage_C -3983.717+6900.000j;
}
object transformer:153  {
	phases "AS";
	from 82232744A;
	to 82232744A_UA_M;
	configuration transformer_configuration:54;
}

object triplex_meter:154 {
	name 82232744A_UA_M;
	phases "AS";
	nominal_voltage 120;
	voltage_1 120;
	voltage_2 120;
	voltage_N 0;
}

object triplex_node:155 {
	name 82232744A_UA_TX;
	parent 82232744A_UA_M;
	phases AS;
	nominal_voltage 120;
	latitude 49N45'9.832";
	longitude 117W52'39.323";
	power_1 70.7+40.1j;
	voltage_1 120;
	voltage_2 120;
	voltage_N 0;
}

object transformer:156  {
	phases "AS";
	from 82245371ABC;
	to 82245371ABC_UA_M;
	configuration transformer_configuration:54;
}

object triplex_meter:157 {
	name 82245371ABC_UA_M;
	phases "AS";
	nominal_voltage 120;
	voltage_1 120;
	voltage_2 120;
	voltage_N 0;
}

object triplex_node:158 {
	name 82245371ABC_UA_TX;
	parent 82245371ABC_UA_M;
	phases AS;
	nominal_voltage 120;
	latitude 49N45'36.194";
	longitude 117W52'11.528";
	power_1 8.9+5.5j;
	voltage_1 120;
	voltage_2 120;
	voltage_N 0;
}

object transformer:159  {
	phases "CS";
	from 82245371ABC;
	to 82245371ABC_UC_M;
	configuration transformer_configuration:76;
}

object triplex_meter:160 {
	name 82245371ABC_UC_M;
	phases "CS";
	nominal_voltage 120;
	voltage_1 -60.000+103.923j;
	voltage_2 -60.000+103.923j;
	voltage_N 0;
}

object triplex_node:161 {
	name 82245371ABC_UC_TX;
	parent 82245371ABC_UC_M;
	phases AS;
	nominal_voltage 120;
	latitude 49N45'36.194";
	longitude 117W52'11.528";
	power_1 0+0j;
	voltage_1 -60.000+103.923j;
	voltage_2 -60.000+103.923j;
	voltage_N 0;
}

object transformer:162  {
	phases "A|B|C|N";
	from 82245414ABC;
	to 82245414ABC_U_M;
	configuration transformer_configuration:90;
}

object meter:163 {
	name 82245414ABC_U_M;
	phases "ABCN";
	nominal_voltage 7967.434;
	voltage_A 7967.434+0.0j;
	voltage_B -3983.717-6900.000j;
	voltage_C -3983.717+6900.000j;
}
object transformer:164  {
	phases "A|B|C|N";
	from 82245428ABC;
	to 82245428ABC_U_M;
	configuration transformer_configuration:90;
}

object meter:165 {
	name 82245428ABC_U_M;
	phases "ABCN";
	nominal_voltage 7967.434;
	voltage_A 7967.434+0.0j;
	voltage_B -3983.717-6900.000j;
	voltage_C -3983.717+6900.000j;
}
object transformer:166  {
	phases "A|B|C|N";
	from 82245465ABC;
	to 82245465ABC_U_M;
	configuration transformer_configuration:94;
}

object meter:167 {
	name 82245465ABC_U_M;
	phases "ABCN";
	nominal_voltage 7967.434;
	voltage_A 7967.434+0.0j;
	voltage_B -3983.717-6900.000j;
	voltage_C -3983.717+6900.000j;
}
object transformer:168  {
	phases "AS";
	from 82245552ABC;
	to 82245552ABC_UA_M;
	configuration transformer_configuration:55;
}

object triplex_meter:169 {
	name 82245552ABC_UA_M;
	phases "AS";
	nominal_voltage 120;
	voltage_1 120;
	voltage_2 120;
	voltage_N 0;
}

object triplex_node:170 {
	name 82245552ABC_UA_TX;
	parent 82245552ABC_UA_M;
	phases AS;
	nominal_voltage 120;
	latitude 49N45'37.568";
	longitude 117W52'0.345";
	power_1 27.6+16.6j;
	voltage_1 120;
	voltage_2 120;
	voltage_N 0;
}

object transformer:171  {
	phases "CS";
	from 82245552ABC;
	to 82245552ABC_UC_M;
	configuration transformer_configuration:77;
}

object triplex_meter:172 {
	name 82245552ABC_UC_M;
	phases "CS";
	nominal_voltage 120;
	voltage_1 -60.000+103.923j;
	voltage_2 -60.000+103.923j;
	voltage_N 0;
}

object triplex_node:173 {
	name 82245552ABC_UC_TX;
	parent 82245552ABC_UC_M;
	phases AS;
	nominal_voltage 120;
	latitude 49N45'37.568";
	longitude 117W52'0.345";
	power_1 0+0j;
	voltage_1 -60.000+103.923j;
	voltage_2 -60.000+103.923j;
	voltage_N 0;
}

object transformer:174  {
	phases "A|B|C|N";
	from 82245575ABC;
	to 82245575ABC_U_M;
	configuration transformer_configuration:96;
}

object meter:175 {
	name 82245575ABC_U_M;
	phases "ABCN";
	nominal_voltage 7967.434;
	voltage_A 7967.434+0.0j;
	voltage_B -3983.717-6900.000j;
	voltage_C -3983.717+6900.000j;
}
object transformer:176  {
	phases "BS";
	from 82263591B;
	to 82263591B_UB_M;
	configuration transformer_configuration:64;
}

object triplex_meter:177 {
	name 82263591B_UB_M;
	phases "BS";
	nominal_voltage 120;
	voltage_1 -60.000-103.923j;
	voltage_2 -60.000-103.923j;
	voltage_N 0;
}

object triplex_node:178 {
	name 82263591B_UB_TX;
	parent 82263591B_UB_M;
	phases BS;
	nominal_voltage 120;
	latitude 49N45'10.410";
	longitude 117W52'49.441";
	power_1 54.5+30.9j;
	voltage_1 -60.000-103.923j;
	voltage_2 -60.000-103.923j;
	voltage_N 0;
}

object transformer:179  {
	phases "AS";
	from 82263619A;
	to 82263619A_UA_M;
	configuration transformer_configuration:54;
}

object triplex_meter:180 {
	name 82263619A_UA_M;
	phases "AS";
	nominal_voltage 120;
	voltage_1 120;
	voltage_2 120;
	voltage_N 0;
}

object triplex_node:181 {
	name 82263619A_UA_TX;
	parent 82263619A_UA_M;
	phases AS;
	nominal_voltage 120;
	latitude 49N45'10.081";
	longitude 117W52'55.629";
	power_1 44+24.9j;
	voltage_1 120;
	voltage_2 120;
	voltage_N 0;
}

object transformer:182  {
	phases "AS";
	from 82263855;
	to 82263855_UA_M;
	configuration transformer_configuration:54;
}

object triplex_meter:183 {
	name 82263855_UA_M;
	phases "AS";
	nominal_voltage 120;
	voltage_1 120;
	voltage_2 120;
	voltage_N 0;
}

object triplex_node:184 {
	name 82263855_UA_TX;
	parent 82263855_UA_M;
	phases AS;
	nominal_voltage 120;
	latitude 49N45'9.550";
	longitude 117W52'27.678";
	power_1 38+19.1j;
	voltage_1 120;
	voltage_2 120;
	voltage_N 0;
}

object transformer:185  {
	phases "CS";
	from 82263855;
	to 82263855_UC_M;
	configuration transformer_configuration:76;
}

object triplex_meter:186 {
	name 82263855_UC_M;
	phases "CS";
	nominal_voltage 120;
	voltage_1 -60.000+103.923j;
	voltage_2 -60.000+103.923j;
	voltage_N 0;
}

object triplex_node:187 {
	name 82263855_UC_TX;
	parent 82263855_UC_M;
	phases AS;
	nominal_voltage 120;
	latitude 49N45'9.550";
	longitude 117W52'27.678";
	power_1 0+0j;
	voltage_1 -60.000+103.923j;
	voltage_2 -60.000+103.923j;
	voltage_N 0;
}

object transformer:188  {
	phases "AS";
	from 82263965AC;
	to 82263965AC_UA_M;
	configuration transformer_configuration:53;
}

object triplex_meter:189 {
	name 82263965AC_UA_M;
	phases "AS";
	nominal_voltage 120;
	voltage_1 120;
	voltage_2 120;
	voltage_N 0;
}

object triplex_node:190 {
	name 82263965AC_UA_TX;
	parent 82263965AC_UA_M;
	phases AS;
	nominal_voltage 120;
	latitude 49N45'13.507";
	longitude 117W52'11.433";
	power_1 82.1+39.8j;
	voltage_1 120;
	voltage_2 120;
	voltage_N 0;
}

object transformer:191  {
	phases "CS";
	from 82263965AC;
	to 82263965AC_UC_M;
	configuration transformer_configuration:75;
}

object triplex_meter:192 {
	name 82263965AC_UC_M;
	phases "CS";
	nominal_voltage 120;
	voltage_1 -60.000+103.923j;
	voltage_2 -60.000+103.923j;
	voltage_N 0;
}

object triplex_node:193 {
	name 82263965AC_UC_TX;
	parent 82263965AC_UC_M;
	phases AS;
	nominal_voltage 120;
	latitude 49N45'13.507";
	longitude 117W52'11.433";
	power_1 0+0j;
	voltage_1 -60.000+103.923j;
	voltage_2 -60.000+103.923j;
	voltage_N 0;
}

object transformer:194  {
	phases "AS";
	from 82263980A;
	to 82263980A_UA_M;
	configuration transformer_configuration:55;
}

object triplex_meter:195 {
	name 82263980A_UA_M;
	phases "AS";
	nominal_voltage 120;
	voltage_1 120;
	voltage_2 120;
	voltage_N 0;
}

object triplex_node:196 {
	name 82263980A_UA_TX;
	parent 82263980A_UA_M;
	phases AS;
	nominal_voltage 120;
	latitude 49N45'14.131";
	longitude 117W52'13.286";
	power_1 63.8+31.3j;
	voltage_1 120;
	voltage_2 120;
	voltage_N 0;
}

object transformer:197  {
	phases "BS";
	from 82264376ABC;
	to 82264376ABC_UB_M;
	configuration transformer_configuration:67;
}

object triplex_meter:198 {
	name 82264376ABC_UB_M;
	phases "BS";
	nominal_voltage 120;
	voltage_1 -60.000-103.923j;
	voltage_2 -60.000-103.923j;
	voltage_N 0;
}

object triplex_node:199 {
	name 82264376ABC_UB_TX;
	parent 82264376ABC_UB_M;
	phases BS;
	nominal_voltage 120;
	latitude 49N45'18.560";
	longitude 117W52'12.280";
	power_1 2.4+1.9j;
	voltage_1 -60.000-103.923j;
	voltage_2 -60.000-103.923j;
	voltage_N 0;
}

object transformer:200  {
	phases "A|B|C|N";
	from 82264387ABC;
	to 82264387ABC_U_M;
	configuration transformer_configuration:98;
}

object meter:201 {
	name 82264387ABC_U_M;
	phases "ABCN";
	nominal_voltage 7967.434;
	voltage_A 7967.434+0.0j;
	voltage_B -3983.717-6900.000j;
	voltage_C -3983.717+6900.000j;
}
object transformer:202  {
	phases "BS";
	from 82264426B;
	to 82264426B_UB_M;
	configuration transformer_configuration:65;
}

object triplex_meter:203 {
	name 82264426B_UB_M;
	phases "BS";
	nominal_voltage 120;
	voltage_1 -60.000-103.923j;
	voltage_2 -60.000-103.923j;
	voltage_N 0;
}

object triplex_node:204 {
	name 82264426B_UB_TX;
	parent 82264426B_UB_M;
	phases BS;
	nominal_voltage 120;
	latitude 49N45'16.519";
	longitude 117W52'13.551";
	power_1 79.1+42j;
	voltage_1 -60.000-103.923j;
	voltage_2 -60.000-103.923j;
	voltage_N 0;
}

object transformer:205  {
	phases "BS";
	from 82264440B;
	to 82264440B_UB_M;
	configuration transformer_configuration:65;
}

object triplex_meter:206 {
	name 82264440B_UB_M;
	phases "BS";
	nominal_voltage 120;
	voltage_1 -60.000-103.923j;
	voltage_2 -60.000-103.923j;
	voltage_N 0;
}

object triplex_node:207 {
	name 82264440B_UB_TX;
	parent 82264440B_UB_M;
	phases BS;
	nominal_voltage 120;
	latitude 49N45'15.122";
	longitude 117W52'14.561";
	power_1 57.7+30.1j;
	voltage_1 -60.000-103.923j;
	voltage_2 -60.000-103.923j;
	voltage_N 0;
}

object transformer:208  {
	phases "AS";
	from 82264454A;
	to 82264454A_UA_M;
	configuration transformer_configuration:53;
}

object triplex_meter:209 {
	name 82264454A_UA_M;
	phases "AS";
	nominal_voltage 120;
	voltage_1 120;
	voltage_2 120;
	voltage_N 0;
}

object triplex_node:210 {
	name 82264454A_UA_TX;
	parent 82264454A_UA_M;
	phases AS;
	nominal_voltage 120;
	latitude 49N45'18.563";
	longitude 117W52'11.396";
	power_1 121.4+59.3j;
	voltage_1 120;
	voltage_2 120;
	voltage_N 0;
}

object transformer:211  {
	phases "BS";
	from 82274079B;
	to 82274079B_UB_M;
	configuration transformer_configuration:63;
}

object triplex_meter:212 {
	name 82274079B_UB_M;
	phases "BS";
	nominal_voltage 120;
	voltage_1 -60.000-103.923j;
	voltage_2 -60.000-103.923j;
	voltage_N 0;
}

object triplex_node:213 {
	name 82274079B_UB_TX;
	parent 82274079B_UB_M;
	phases BS;
	nominal_voltage 120;
	latitude 49N44'40.123";
	longitude 117W53'4.064";
	power_1 28.2+16j;
	voltage_1 -60.000-103.923j;
	voltage_2 -60.000-103.923j;
	voltage_N 0;
}

object transformer:214  {
	phases "BS";
	from 82280323B;
	to 82280323B_UB_M;
	configuration transformer_configuration:63;
}

object triplex_meter:215 {
	name 82280323B_UB_M;
	phases "BS";
	nominal_voltage 120;
	voltage_1 -60.000-103.923j;
	voltage_2 -60.000-103.923j;
	voltage_N 0;
}

object triplex_node:216 {
	name 82280323B_UB_TX;
	parent 82280323B_UB_M;
	phases BS;
	nominal_voltage 120;
	latitude 49N44'31.774";
	longitude 117W52'45.380";
	power_1 22.7+12.9j;
	voltage_1 -60.000-103.923j;
	voltage_2 -60.000-103.923j;
	voltage_N 0;
}

object transformer:217  {
	phases "AS";
	from 82280986A;
	to 82280986A_UA_M;
	configuration transformer_configuration:54;
}

object triplex_meter:218 {
	name 82280986A_UA_M;
	phases "AS";
	nominal_voltage 120;
	voltage_1 120;
	voltage_2 120;
	voltage_N 0;
}

object triplex_node:219 {
	name 82280986A_UA_TX;
	parent 82280986A_UA_M;
	phases AS;
	nominal_voltage 120;
	latitude 49N44'31.571";
	longitude 117W52'42.612";
	power_1 48.3+26j;
	voltage_1 120;
	voltage_2 120;
	voltage_N 0;
}

object transformer:220  {
	phases "BS";
	from 82281000B;
	to 82281000B_UB_M;
	configuration transformer_configuration:63;
}

object triplex_meter:221 {
	name 82281000B_UB_M;
	phases "BS";
	nominal_voltage 120;
	voltage_1 -60.000-103.923j;
	voltage_2 -60.000-103.923j;
	voltage_N 0;
}

object triplex_node:222 {
	name 82281000B_UB_TX;
	parent 82281000B_UB_M;
	phases BS;
	nominal_voltage 120;
	latitude 49N44'36.279";
	longitude 117W52'41.844";
	power_1 47.4+26.9j;
	voltage_1 -60.000-103.923j;
	voltage_2 -60.000-103.923j;
	voltage_N 0;
}

object transformer:223  {
	phases "AS";
	from 82284133AC;
	to 82284133AC_UA_M;
	configuration transformer_configuration:56;
}

object triplex_meter:224 {
	name 82284133AC_UA_M;
	phases "AS";
	nominal_voltage 120;
	voltage_1 120;
	voltage_2 120;
	voltage_N 0;
}

object triplex_node:225 {
	name 82284133AC_UA_TX;
	parent 82284133AC_UA_M;
	phases AS;
	nominal_voltage 120;
	latitude 49N44'57.686";
	longitude 117W52'53.990";
	power_1 2.2+0.1j;
	voltage_1 120;
	voltage_2 120;
	voltage_N 0;
}

object transformer:226  {
	phases "CS";
	from 82284133AC;
	to 82284133AC_UC_M;
	configuration transformer_configuration:78;
}

object triplex_meter:227 {
	name 82284133AC_UC_M;
	phases "CS";
	nominal_voltage 120;
	voltage_1 -60.000+103.923j;
	voltage_2 -60.000+103.923j;
	voltage_N 0;
}

object triplex_node:228 {
	name 82284133AC_UC_TX;
	parent 82284133AC_UC_M;
	phases AS;
	nominal_voltage 120;
	latitude 49N44'57.686";
	longitude 117W52'53.990";
	power_1 28.6+17.6j;
	voltage_1 -60.000+103.923j;
	voltage_2 -60.000+103.923j;
	voltage_N 0;
}

object transformer:229  {
	phases "AS";
	from 82284181A;
	to 82284181A_UA_M;
	configuration transformer_configuration:56;
}

object triplex_meter:230 {
	name 82284181A_UA_M;
	phases "AS";
	nominal_voltage 120;
	voltage_1 120;
	voltage_2 120;
	voltage_N 0;
}

object triplex_node:231 {
	name 82284181A_UA_TX;
	parent 82284181A_UA_M;
	phases AS;
	nominal_voltage 120;
	latitude 49N44'58.783";
	longitude 117W52'45.262";
	power_1 17.1+9.7j;
	voltage_1 120;
	voltage_2 120;
	voltage_N 0;
}

object transformer:232  {
	phases "A|B|C|N";
	from 82284219AB;
	to 82284219AB_U_M;
	configuration transformer_configuration:100;
}

object meter:233 {
	name 82284219AB_U_M;
	phases "ABCN";
	nominal_voltage 7967.434;
	voltage_A 7967.434+0.0j;
	voltage_B -3983.717-6900.000j;
	voltage_C -3983.717+6900.000j;
}
object transformer:234  {
	phases "AS";
	from 82284243A;
	to 82284243A_UA_M;
	configuration transformer_configuration:55;
}

object triplex_meter:235 {
	name 82284243A_UA_M;
	phases "AS";
	nominal_voltage 120;
	voltage_1 120;
	voltage_2 120;
	voltage_N 0;
}

object triplex_node:236 {
	name 82284243A_UA_TX;
	parent 82284243A_UA_M;
	phases AS;
	nominal_voltage 120;
	latitude 49N45'5.473";
	longitude 117W52'34.786";
	power_1 84.6+47.1j;
	voltage_1 120;
	voltage_2 120;
	voltage_N 0;
}

object transformer:237  {
	phases "AS";
	from 82284284ABC;
	to 82284284ABC_UA_M;
	configuration transformer_configuration:57;
}

object triplex_meter:238 {
	name 82284284ABC_UA_M;
	phases "AS";
	nominal_voltage 120;
	voltage_1 120;
	voltage_2 120;
	voltage_N 0;
}

object triplex_node:239 {
	name 82284284ABC_UA_TX;
	parent 82284284ABC_UA_M;
	phases AS;
	nominal_voltage 120;
	latitude 49N45'7.773";
	longitude 117W52'27.674";
	power_1 2.3+0.1j;
	voltage_1 120;
	voltage_2 120;
	voltage_N 0;
}

object transformer:240  {
	phases "CS";
	from 82284284ABC;
	to 82284284ABC_UC_M;
	configuration transformer_configuration:79;
}

object triplex_meter:241 {
	name 82284284ABC_UC_M;
	phases "CS";
	nominal_voltage 120;
	voltage_1 -60.000+103.923j;
	voltage_2 -60.000+103.923j;
	voltage_N 0;
}

object triplex_node:242 {
	name 82284284ABC_UC_TX;
	parent 82284284ABC_UC_M;
	phases AS;
	nominal_voltage 120;
	latitude 49N45'7.773";
	longitude 117W52'27.674";
	power_1 22+12.8j;
	voltage_1 -60.000+103.923j;
	voltage_2 -60.000+103.923j;
	voltage_N 0;
}

object transformer:243  {
	phases "BS";
	from 82356746B;
	to 82356746B_UB_M;
	configuration transformer_configuration:64;
}

object triplex_meter:244 {
	name 82356746B_UB_M;
	phases "BS";
	nominal_voltage 120;
	voltage_1 -60.000-103.923j;
	voltage_2 -60.000-103.923j;
	voltage_N 0;
}

object triplex_node:245 {
	name 82356746B_UB_TX;
	parent 82356746B_UB_M;
	phases BS;
	nominal_voltage 120;
	latitude 49N44'51.843";
	longitude 117W52'36.124";
	power_1 57.5+32.6j;
	voltage_1 -60.000-103.923j;
	voltage_2 -60.000-103.923j;
	voltage_N 0;
}

object transformer:246  {
	phases "AS";
	from 82384283ABC;
	to 82384283ABC_UA_M;
	configuration transformer_configuration:57;
}

object triplex_meter:247 {
	name 82384283ABC_UA_M;
	phases "AS";
	nominal_voltage 120;
	voltage_1 120;
	voltage_2 120;
	voltage_N 0;
}

object triplex_node:248 {
	name 82384283ABC_UA_TX;
	parent 82384283ABC_UA_M;
	phases AS;
	nominal_voltage 120;
	latitude 49N44'52.377";
	longitude 117W52'27.576";
	power_1 8.4+0.6j;
	voltage_1 120;
	voltage_2 120;
	voltage_N 0;
}

object transformer:249  {
	phases "CS";
	from 82384283ABC;
	to 82384283ABC_UC_M;
	configuration transformer_configuration:79;
}

object triplex_meter:250 {
	name 82384283ABC_UC_M;
	phases "CS";
	nominal_voltage 120;
	voltage_1 -60.000+103.923j;
	voltage_2 -60.000+103.923j;
	voltage_N 0;
}

object triplex_node:251 {
	name 82384283ABC_UC_TX;
	parent 82384283ABC_UC_M;
	phases AS;
	nominal_voltage 120;
	latitude 49N44'52.377";
	longitude 117W52'27.576";
	power_1 33.6+23.3j;
	voltage_1 -60.000+103.923j;
	voltage_2 -60.000+103.923j;
	voltage_N 0;
}

object transformer:252  {
	phases "BS";
	from 82384305B;
	to 82384305B_UB_M;
	configuration transformer_configuration:64;
}

object triplex_meter:253 {
	name 82384305B_UB_M;
	phases "BS";
	nominal_voltage 120;
	voltage_1 -60.000-103.923j;
	voltage_2 -60.000-103.923j;
	voltage_N 0;
}

object triplex_node:254 {
	name 82384305B_UB_TX;
	parent 82384305B_UB_M;
	phases BS;
	nominal_voltage 120;
	latitude 49N44'48.679";
	longitude 117W52'33.629";
	power_1 98.6+55.9j;
	voltage_1 -60.000-103.923j;
	voltage_2 -60.000-103.923j;
	voltage_N 0;
}

object transformer:255  {
	phases "BS";
	from 82384318B;
	to 82384318B_UB_M;
	configuration transformer_configuration:66;
}

object triplex_meter:256 {
	name 82384318B_UB_M;
	phases "BS";
	nominal_voltage 120;
	voltage_1 -60.000-103.923j;
	voltage_2 -60.000-103.923j;
	voltage_N 0;
}

object triplex_node:257 {
	name 82384318B_UB_TX;
	parent 82384318B_UB_M;
	phases BS;
	nominal_voltage 120;
	latitude 49N44'45.847";
	longitude 117W52'27.366";
	power_1 24.3+13.7j;
	voltage_1 -60.000-103.923j;
	voltage_2 -60.000-103.923j;
	voltage_N 0;
}

object transformer:258  {
	phases "BS";
	from 82396036ABC;
	to 82396036ABC_UB_M;
	configuration transformer_configuration:66;
}

object triplex_meter:259 {
	name 82396036ABC_UB_M;
	phases "BS";
	nominal_voltage 120;
	voltage_1 -60.000-103.923j;
	voltage_2 -60.000-103.923j;
	voltage_N 0;
}

object triplex_node:260 {
	name 82396036ABC_UB_TX;
	parent 82396036ABC_UB_M;
	phases BS;
	nominal_voltage 120;
	latitude 49N44'52.409";
	longitude 117W52'53.301";
	power_1 18.9+10.7j;
	voltage_1 -60.000-103.923j;
	voltage_2 -60.000-103.923j;
	voltage_N 0;
}

object transformer:261  {
	phases "BS";
	from 82996859ABC;
	to 82996859ABC_UB_M;
	configuration transformer_configuration:67;
}

object triplex_meter:262 {
	name 82996859ABC_UB_M;
	phases "BS";
	nominal_voltage 120;
	voltage_1 -60.000-103.923j;
	voltage_2 -60.000-103.923j;
	voltage_N 0;
}

object triplex_node:263 {
	name 82996859ABC_UB_TX;
	parent 82996859ABC_UB_M;
	phases BS;
	nominal_voltage 120;
	latitude 49N45'34.519";
	longitude 117W52'5.966";
	power_1 0+0j;
	voltage_1 -60.000-103.923j;
	voltage_2 -60.000-103.923j;
	voltage_N 0;
}

object transformer:264  {
	phases "A|B|C|N";
	from 86117012ABC;
	to 86117012ABC_U_M;
	configuration transformer_configuration:102;
}

object meter:265 {
	name 86117012ABC_U_M;
	phases "ABCN";
	nominal_voltage 7967.434;
	voltage_A 7967.434+0.0j;
	voltage_B -3983.717-6900.000j;
	voltage_C -3983.717+6900.000j;
}
object transformer:266  {
	phases "BS";
	from 86117026B;
	to 86117026B_UB_M;
	configuration transformer_configuration:69;
}

object triplex_meter:267 {
	name 86117026B_UB_M;
	phases "BS";
	nominal_voltage 120;
	voltage_1 -60.000-103.923j;
	voltage_2 -60.000-103.923j;
	voltage_N 0;
}

object triplex_node:268 {
	name 86117026B_UB_TX;
	parent 86117026B_UB_M;
	phases BS;
	nominal_voltage 120;
	latitude 49N45'8.034";
	longitude 117W52'25.787";
	power_1 47.7+23.1j;
	voltage_1 -60.000-103.923j;
	voltage_2 -60.000-103.923j;
	voltage_N 0;
}

object transformer:269  {
	phases "BS";
	from 86117129B;
	to 86117129B_UB_M;
	configuration transformer_configuration:69;
}

object triplex_meter:270 {
	name 86117129B_UB_M;
	phases "BS";
	nominal_voltage 120;
	voltage_1 -60.000-103.923j;
	voltage_2 -60.000-103.923j;
	voltage_N 0;
}

object triplex_node:271 {
	name 86117129B_UB_TX;
	parent 86117129B_UB_M;
	phases BS;
	nominal_voltage 120;
	latitude 49N45'7.859";
	longitude 117W52'21.736";
	power_1 33.2+16.6j;