// $Id: R5-12.47-1.glm 1132 2008-11-18 22:36:10Z dchassin $ 
//*********************************************

clock { 
	 timezone EST+5EDT;
	 timestamp '2000-01-01 0:00:00';
}

//*********************************************
// modules
module powerflow;


object fuse:863 {
	name R5-12-47-1_fuse_1;
	phases "ABCN";
	from node:799;
	to node:798;
	current_limit 3000.0;
	status CLOSED;
}

object fuse:868 {
	name R5-12-47-1_fuse_2;
	phases "CN";
	from node:804;
	to node:805;
	current_limit 3000.0;
	status CLOSED;
}

object fuse:877 {
	name R5-12-47-1_fuse_3;
	phases "BN";
	from node:438;
	to node:440;
	current_limit 3000.0;
	status CLOSED;
}

object fuse:880 {
	name R5-12-47-1_fuse_4;
	phases "CN";
	from node:442;
	to node:443;
	current_limit 3000.0;
	status CLOSED;
}

object fuse:890 {
	name R5-12-47-1_fuse_5;
	phases "BN";
	from node:456;
	to node:455;
	current_limit 3000.0;
	status CLOSED;
}

object fuse:914 {
	name R5-12-47-1_fuse_6;
	phases "ABCN";
	from node:486;
	to node:484;
	current_limit 3000.0;
	status CLOSED;
}

object fuse:917 {
	name R5-12-47-1_fuse_7;
	phases "ABCN";
	from node:813;
	to node:487;
	current_limit 3000.0;
	status CLOSED;
}

object fuse:926 {
	name R5-12-47-1_fuse_8;
	phases "ABCN";
	from node:500;
	to node:502;
	current_limit 3000.0;
	status CLOSED;
}

object fuse:932 {
	name R5-12-47-1_fuse_9;
	phases "ABCN";
	from node:507;
	to node:509;
	current_limit 3000.0;
	status CLOSED;
}

object fuse:936 {
	name R5-12-47-1_fuse_10;
	phases "ABCN";
	from node:510;
	to node:516;
	current_limit 3000.0;
	status CLOSED;
}

object fuse:945 {
	name R5-12-47-1_fuse_11;
	phases "ACN";
	from node:555;
	to node:530;
	current_limit 3000.0;
	status CLOSED;
}

object fuse:948 {
	name R5-12-47-1_fuse_12;
	phases "AN";
	from node:533;
	to node:535;
	current_limit 3000.0;
	status CLOSED;
}

object fuse:953 {
	name R5-12-47-1_fuse_13;
	phases "CN";
	from node:553;
	to node:542;
	current_limit 3000.0;
	status CLOSED;
}

object fuse:957 {
	name R5-12-47-1_fuse_14;
	phases "BN";
	from node:545;
	to node:546;
	current_limit 3000.0;
	status CLOSED;
}

object fuse:960 {
	name R5-12-47-1_fuse_15;
	phases "AN";
	from node:550;
	to node:551;
	current_limit 3000.0;
	status CLOSED;
}

object fuse:981 {
	name R5-12-47-1_fuse_16;
	phases "BCN";
	from node:602;
	to node:580;
	current_limit 3000.0;
	status CLOSED;
}

object fuse:999 {
	name R5-12-47-1_fuse_17;
	phases "CN";
	from node:629;
	to node:601;
	current_limit 3000.0;
	status CLOSED;
}

object fuse:1012 {
	name R5-12-47-1_fuse_18;
	phases "CN";
	from node:614;
	to node:615;
	current_limit 3000.0;
	status CLOSED;
}

object fuse:1016 {
	name R5-12-47-1_fuse_19;
	phases "BN";
	from node:638;
	to node:619;
	current_limit 3000.0;
	status CLOSED;
}

object fuse:1019 {
	name R5-12-47-1_fuse_20;
	phases "BN";
	from node:623;
	to node:625;
	current_limit 3000.0;
	status CLOSED;
}

object fuse:1029 {
	name R5-12-47-1_fuse_21;
	phases "ACN";
	from node:636;
	to node:637;
	current_limit 3000.0;
	status CLOSED;
}

object fuse:1035 {
	name R5-12-47-1_fuse_22;
	phases "CN";
	from node:468;
	to node:644;
	current_limit 3000.0;
	status CLOSED;
}

object fuse:1041 {
	name R5-12-47-1_fuse_23;
	phases "CN";
	from node:475;
	to node:653;
	current_limit 3000.0;
	status CLOSED;
}

object fuse:1042 {
	name R5-12-47-1_fuse_24;
	phases "ABCN";
	from node:453;
	to node:654;
	current_limit 3000.0;
	status CLOSED;
}

object fuse:1051 {
	name R5-12-47-1_fuse_25;
	phases "BN";
	from node:554;
	to node:675;
	current_limit 3000.0;
	status CLOSED;
}

object fuse:1052 {
	name R5-12-47-1_fuse_26;
	phases "BN";
	from node:558;
	to node:678;
	current_limit 3000.0;
	status CLOSED;
}

object fuse:1056 {
	name R5-12-47-1_fuse_27;
	phases "CN";
	from node:563;
	to node:685;
	current_limit 3000.0;
	status CLOSED;
}

object fuse:1064 {
	name R5-12-47-1_fuse_28;
	phases "ACN";
	from node:606;
	to node:703;
	current_limit 3000.0;
	status CLOSED;
}

object fuse:1068 {
	name R5-12-47-1_fuse_29;
	phases "CN";
	from node:605;
	to node:707;
	current_limit 3000.0;
	status CLOSED;
}

object fuse:1072 {
	name R5-12-47-1_fuse_30;
	phases "BN";
	from node:604;
	to node:715;
	current_limit 3000.0;
	status CLOSED;
}

object fuse:1075 {
	name R5-12-47-1_fuse_31;
	phases "AN";
	from node:603;
	to node:719;
	current_limit 3000.0;
	status CLOSED;
}

object fuse:1078 {
	name R5-12-47-1_fuse_32;
	phases "CN";
	from node:803;
	to node:724;
	current_limit 3000.0;
	status CLOSED;
}

object fuse:1084 {
	name R5-12-47-1_fuse_33;
	phases "ABN";
	from node:600;
	to node:732;
	current_limit 3000.0;
	status CLOSED;
}

object fuse:1088 {
	name R5-12-47-1_fuse_34;
	phases "AN";
	from node:598;
	to node:741;
	current_limit 3000.0;
	status CLOSED;
}

object fuse:1092 {
	name R5-12-47-1_fuse_35;
	phases "CN";
	from node:586;
	to node:745;
	current_limit 3000.0;
	status CLOSED;
}

object fuse:1093 {
	name R5-12-47-1_fuse_36;
	phases "BN";
	from node:612;
	to node:746;
	current_limit 3000.0;
	status CLOSED;
}

object fuse:1094 {
	name R5-12-47-1_fuse_37;
	phases "AN";
	from node:607;
	to node:749;
	current_limit 3000.0;
	status CLOSED;
}

object fuse:1097 {
	name R5-12-47-1_fuse_38;
	phases "BN";
	from node:611;
	to node:755;
	current_limit 3000.0;
	status CLOSED;
}

object fuse:1104 {
	name R5-12-47-1_fuse_39;
	phases "CN";
	from node:630;
	to node:766;
	current_limit 3000.0;
	status CLOSED;
}

object fuse:1109 {
	name R5-12-47-1_fuse_40;
	phases "CN";
	from node:597;
	to node:773;
	current_limit 3000.0;
	status CLOSED;
}

object fuse:1110 {
	name R5-12-47-1_fuse_41;
	phases "BN";
	from node:626;
	to node:775;
	current_limit 3000.0;
	status CLOSED;
}

object fuse:1112 {
	name R5-12-47-1_fuse_42;
	phases "BN";
	from node:464;
	to node:778;
	current_limit 3000.0;
	status CLOSED;
}

object fuse:1113 {
	name R5-12-47-1_fuse_43;
	phases "BN";
	from node:466;
	to node:779;
	current_limit 3000.0;
	status CLOSED;
}

object fuse:1114 {
	name R5-12-47-1_fuse_44;
	phases "ABCN";
	from node:478;
	to node:780;
	current_limit 3000.0;
	status CLOSED;
}

object fuse:1115 {
	name R5-12-47-1_fuse_45;
	phases "ABCN";
	from node:485;
	to node:781;
	current_limit 3000.0;
	status CLOSED;
}

object fuse:1116 {
	name R5-12-47-1_fuse_46;
	phases "ABCN";
	from node:503;
	to node:782;
	current_limit 3000.0;
	status CLOSED;
}

object fuse:1117 {
	name R5-12-47-1_fuse_47;
	phases "ABCN";
	from node:496;
	to node:783;
	current_limit 3000.0;
	status CLOSED;
}

object fuse:1118 {
	name R5-12-47-1_fuse_48;
	phases "BN";
	from node:562;
	to node:784;
	current_limit 3000.0;
	status CLOSED;
}

object fuse:1119 {
	name R5-12-47-1_fuse_49;
	phases "BN";
	from node:561;
	to node:785;
	current_limit 3000.0;
	status CLOSED;
}

object fuse:1120 {
	name R5-12-47-1_fuse_50;
	phases "CN";
	from node:592;
	to node:786;
	current_limit 3000.0;
	status CLOSED;
}

object fuse:1121 {
	name R5-12-47-1_fuse_51;
	phases "ABCN";
	from node:641;
	to node:787;
	current_limit 3000.0;
	status CLOSED;
}


object line_configuration:816 {
	conductor_A underground_line_conductor:44;
	conductor_B underground_line_conductor:44;
	conductor_C underground_line_conductor:44;
	conductor_N underground_line_conductor:44;
	spacing line_spacing:815;
}

object line_configuration:818 {
	conductor_A overhead_line_conductor:20;
	conductor_B overhead_line_conductor:20;
	conductor_C overhead_line_conductor:20;
	conductor_N overhead_line_conductor:20;
	spacing line_spacing:817;
}

object line_configuration:820 {
	conductor_A overhead_line_conductor:20;
	conductor_B overhead_line_conductor:20;
	conductor_C overhead_line_conductor:20;
	conductor_N overhead_line_conductor:20;
	spacing line_spacing:819;
}

object line_configuration:822 {
	conductor_C overhead_line_conductor:20;
	conductor_N overhead_line_conductor:20;
	spacing line_spacing:821;
}

object line_configuration:824 {
	conductor_C overhead_line_conductor:20;
	conductor_N overhead_line_conductor:20;
	spacing line_spacing:823;
}

object line_configuration:826 {
	conductor_B overhead_line_conductor:20;
	conductor_N overhead_line_conductor:20;
	spacing line_spacing:825;
}

object line_configuration:828 {
	conductor_B overhead_line_conductor:20;
	conductor_C overhead_line_conductor:20;
	conductor_N overhead_line_conductor:20;
	spacing line_spacing:827;
}

object line_configuration:830 {
	conductor_A overhead_line_conductor:20;
	conductor_B overhead_line_conductor:20;
	conductor_C overhead_line_conductor:20;
	conductor_N overhead_line_conductor:20;
	spacing line_spacing:829;
}

object line_configuration:831 {
	conductor_A overhead_line_conductor:30;
	conductor_B overhead_line_conductor:30;
	conductor_C overhead_line_conductor:30;
	conductor_N overhead_line_conductor:30;
	spacing line_spacing:829;
}

object line_configuration:832 {
	conductor_A overhead_line_conductor:40;
	conductor_B overhead_line_conductor:40;
	conductor_C overhead_line_conductor:40;
	conductor_N overhead_line_conductor:40;
	spacing line_spacing:819;
}

object line_configuration:833 {
	conductor_C overhead_line_conductor:11;
	conductor_N overhead_line_conductor:11;
	spacing line_spacing:821;
}

object line_configuration:834 {
	conductor_A underground_line_conductor:49;
	conductor_B underground_line_conductor:49;
	conductor_C underground_line_conductor:49;
	conductor_N underground_line_conductor:49;
	spacing line_spacing:815;
}

object line_configuration:835 {
	conductor_A overhead_line_conductor:40;
	conductor_B overhead_line_conductor:40;
	conductor_C overhead_line_conductor:40;
	conductor_N overhead_line_conductor:40;
	spacing line_spacing:829;
}

object line_configuration:836 {
	conductor_A overhead_line_conductor:30;
	conductor_B overhead_line_conductor:30;
	conductor_C overhead_line_conductor:30;
	conductor_N overhead_line_conductor:30;
	spacing line_spacing:829;
}

object line_configuration:837 {
	conductor_A overhead_line_conductor:40;
	conductor_B overhead_line_conductor:40;
	conductor_C overhead_line_conductor:40;
	conductor_N overhead_line_conductor:40;
	spacing line_spacing:819;
}

object line_configuration:839 {
	conductor_A overhead_line_conductor:20;
	conductor_N overhead_line_conductor:20;
	spacing line_spacing:838;
}

object line_configuration:841 {
	conductor_A overhead_line_conductor:19;
	conductor_B overhead_line_conductor:19;
	conductor_C overhead_line_conductor:19;
	conductor_N overhead_line_conductor:19;
	spacing line_spacing:840;
}

object line_configuration:843 {
	conductor_A overhead_line_conductor:20;
	conductor_C overhead_line_conductor:20;
	conductor_N overhead_line_conductor:20;
	spacing line_spacing:842;
}

object line_configuration:844 {
	conductor_B overhead_line_conductor:11;
	conductor_N overhead_line_conductor:11;
	spacing line_spacing:825;
}

object line_configuration:846 {
	conductor_C underground_line_conductor:43;
	conductor_N underground_line_conductor:43;
	spacing line_spacing:845;
}

object line_configuration:848 {
	conductor_A overhead_line_conductor:20;
	conductor_C overhead_line_conductor:20;
	conductor_N overhead_line_conductor:20;
	spacing line_spacing:847;
}

object line_configuration:850 {
	conductor_B overhead_line_conductor:20;
	conductor_C overhead_line_conductor:20;
	conductor_N overhead_line_conductor:20;
	spacing line_spacing:849;
}

object line_configuration:852 {
	conductor_A overhead_line_conductor:20;
	conductor_B overhead_line_conductor:20;
	conductor_N overhead_line_conductor:20;
	spacing line_spacing:851;
}

object line_configuration:854 {
	conductor_A overhead_line_conductor:20;
	conductor_B overhead_line_conductor:20;
	conductor_N overhead_line_conductor:20;
	spacing line_spacing:853;
}

object line_configuration:856 {
	conductor_B overhead_line_conductor:40;
	conductor_N overhead_line_conductor:40;
	spacing line_spacing:855;
}

object line_configuration:857 {
	conductor_A underground_line_conductor:43;
	conductor_B underground_line_conductor:43;
	conductor_C underground_line_conductor:43;
	conductor_N underground_line_conductor:43;
	spacing line_spacing:815;
}

object line_configuration:859 {
	conductor_B underground_line_conductor:43;
	conductor_N underground_line_conductor:43;
	spacing line_spacing:858;
}

object line_configuration:860 {
	conductor_A underground_line_conductor:42;
	conductor_B underground_line_conductor:42;
	conductor_C underground_line_conductor:42;
	conductor_N underground_line_conductor:42;
	spacing line_spacing:815;
}


object line_spacing:815 {
	distance_AB 12.0 in;
	distance_BC 12.0 in;
	distance_AC 12.0 in;
	distance_AN 360.0 in;
	distance_BN 360.0 in;
	distance_CN 360.0 in;
}

object line_spacing:817 {
	distance_AB 53.19999999996 in;
	distance_BC 53.19999999996 in;
	distance_AC 53.19999999996 in;
	distance_AN 69.80000000004 in;
	distance_BN 69.80000000004 in;
	distance_CN 69.80000000004 in;
}

object line_spacing:819 {
	distance_AB 60.50000000004 in;
	distance_BC 60.50000000004 in;
	distance_AC 60.50000000004 in;
	distance_AN 84.6 in;
	distance_BN 84.6 in;
	distance_CN 84.6 in;
}

object line_spacing:821 {
	distance_CN 69.99999999996 in;
}

object line_spacing:823 {
	distance_CN 69.99999999996 in;
}

object line_spacing:825 {
	distance_BN 69.99999999996 in;
}

object line_spacing:827 {
	distance_BC 48.0 in;
	distance_BN 20.79999999996 in;
	distance_CN 20.79999999996 in;
}

object line_spacing:829 {
	distance_AB 65.90000000004 in;
	distance_BC 65.90000000004 in;
	distance_AC 65.90000000004 in;
	distance_AN 75.50000000004 in;
	distance_BN 75.50000000004 in;
	distance_CN 75.50000000004 in;
}

object line_spacing:838 {
	distance_AN 69.99999999996 in;
}

object line_spacing:840 {
	distance_AB 53.19999999996 in;
	distance_BC 53.19999999996 in;
	distance_AC 53.19999999996 in;
	distance_AN 80.49999999996 in;
	distance_BN 80.49999999996 in;
	distance_CN 80.49999999996 in;
}

object line_spacing:842 {
	distance_AC 111.99999999996 in;
	distance_AN 19.29999999996 in;
	distance_CN 19.29999999996 in;
}

object line_spacing:845 {
	distance_CN 360.0 in;
}

object line_spacing:847 {
	distance_AC 48.0 in;
	distance_AN 20.79999999996 in;
	distance_CN 20.79999999996 in;
}

object line_spacing:849 {
	distance_BC 111.99999999996 in;
	distance_BN 19.89999999996 in;
	distance_CN 19.89999999996 in;
}

object line_spacing:851 {
	distance_AB 48.0 in;
	distance_AN 20.79999999996 in;
	distance_BN 20.79999999996 in;
}

object line_spacing:853 {
	distance_AB 111.99999999996 in;
	distance_AN 19.89999999996 in;
	distance_BN 19.89999999996 in;
}

object line_spacing:855 {
	distance_BN 69.99999999996 in;
}

object line_spacing:858 {
	distance_BN 360.0 in;
}


object load {
	name R5-12-47-1_load_1;
	parent R5-12-47-1_meter_1;
	phases "ABCN";
	nominal_voltage 7967.434;
	voltage_A 7967.434+0.0j;
	voltage_B -3983.717-6900.000j;
	voltage_C -3983.717+6900.000j;
	constant_power_A 0.000+0.000j;
	constant_power_B 0.000+0.000j;
	constant_power_C 0.000+0.000j;
	load_class "U";
}

object load {
	name R5-12-47-1_load_2;
	parent R5-12-47-1_meter_2;
	phases "ABCN";
	nominal_voltage 7967.434;
	voltage_A 7967.434+0.0j;
	voltage_B -3983.717-6900.000j;
	voltage_C -3983.717+6900.000j;
	constant_power_A 13100.000+8100.000j;
	constant_power_B 13100.000+8100.000j;
	constant_power_C 13100.000+8100.000j;
	load_class "U";
}

object load {
	name R5-12-47-1_load_3;
	parent R5-12-47-1_meter_3;
	phases "ABCN";
	nominal_voltage 7967.434;
	voltage_A 7967.434+0.0j;
	voltage_B -3983.717-6900.000j;
	voltage_C -3983.717+6900.000j;
	constant_power_A 42000.000+26000.000j;
	constant_power_B 42000.000+26000.000j;
	constant_power_C 42000.000+26000.000j;
	load_class "U";
}

object load {
	name R5-12-47-1_load_4;
	parent R5-12-47-1_meter_4;
	phases "ABCN";
	nominal_voltage 7967.434;
	voltage_A 7967.434+0.0j;
	voltage_B -3983.717-6900.000j;
	voltage_C -3983.717+6900.000j;
	constant_power_A 26500.000+17500.000j;
	constant_power_B 25600.000+15900.000j;
	constant_power_C 27500.000+15900.000j;
	load_class "U";
}

object load {
	name R5-12-47-1_load_5;
	parent R5-12-47-1_meter_5;
	phases "ABCN";
	nominal_voltage 7967.434;
	voltage_A 7967.434+0.0j;
	voltage_B -3983.717-6900.000j;
	voltage_C -3983.717+6900.000j;
	constant_power_A 56600.000+35100.000j;
	constant_power_B 56600.000+35100.000j;
	constant_power_C 56600.000+35100.000j;
	load_class "U";
}

object load {
	name R5-12-47-1_load_6;
	parent R5-12-47-1_meter_6;
	phases "ABCN";
	nominal_voltage 7967.434;
	voltage_A 7967.434+0.0j;
	voltage_B -3983.717-6900.000j;
	voltage_C -3983.717+6900.000j;
	constant_power_A 38100.000+23600.000j;
	constant_power_B 38100.000+23600.000j;
	constant_power_C 38100.000+23600.000j;
	load_class "U";
}

object load {
	name R5-12-47-1_load_7;
	parent R5-12-47-1_meter_7;
	phases "ABCN";
	nominal_voltage 7967.434;
	voltage_A 7967.434+0.0j;
	voltage_B -3983.717-6900.000j;
	voltage_C -3983.717+6900.000j;
	constant_power_A 37800.000+34200.000j;
	constant_power_B 27500.000+16200.000j;
	constant_power_C 48300.000+16300.000j;
	load_class "U";
}

object load {
	name R5-12-47-1_load_8;
	parent R5-12-47-1_meter_8;
	phases "ABCN";
	nominal_voltage 7967.434;
	voltage_A 7967.434+0.0j;
	voltage_B -3983.717-6900.000j;
	voltage_C -3983.717+6900.000j;
	constant_power_A 30700.000+19000.000j;
	constant_power_B 30700.000+19000.000j;
	constant_power_C 30700.000+19000.000j;
	load_class "U";
}

object load {
	name R5-12-47-1_load_9;
	parent R5-12-47-1_meter_9;
	phases "ABCN";
	nominal_voltage 7967.434;
	voltage_A 7967.434+0.0j;
	voltage_B -3983.717-6900.000j;
	voltage_C -3983.717+6900.000j;
	constant_power_A 3300.000+6200.000j;
	constant_power_B 29600.000+14200.000j;
	constant_power_C 0.000+0.000j;
	load_class "U";
}

object load {
	name R5-12-47-1_load_10;
	parent R5-12-47-1_meter_10;
	phases "ABCN";
	nominal_voltage 7967.434;
	voltage_A 7967.434+0.0j;
	voltage_B -3983.717-6900.000j;
	voltage_C -3983.717+6900.000j;
	constant_power_A 28700.000+8900.000j;
	constant_power_B 0.000+0.000j;
	constant_power_C 7100.000+13200.000j;
	load_class "U";
}

object load {
	name R5-12-47-1_load_11;
	parent R5-12-47-1_meter_11;
	phases "ABCN";
	nominal_voltage 7967.434;
	voltage_A 7967.434+0.0j;
	voltage_B -3983.717-6900.000j;
	voltage_C -3983.717+6900.000j;
	constant_power_A 68200.000+41400.000j;
	constant_power_B 12700.000+400.000j;
	constant_power_C 0.000+0.000j;
	load_class "U";
}

object load {
	name R5-12-47-1_load_12;
	parent R5-12-47-1_meter_12;
	phases "ABCN";
	nominal_voltage 7967.434;
	voltage_A 7967.434+0.0j;
	voltage_B -3983.717-6900.000j;
	voltage_C -3983.717+6900.000j;
	constant_power_A 52600.000+30200.000j;
	constant_power_B 700.000+0.000j;
	constant_power_C 0.000+0.000j;
	load_class "U";
}

object load {
	name R5-12-47-1_load_13;
	parent R5-12-47-1_meter_13;
	phases "ABCN";
	nominal_voltage 7967.434;
	voltage_A 7967.434+0.0j;
	voltage_B -3983.717-6900.000j;
	voltage_C -3983.717+6900.000j;
	constant_power_A 90900.000+56300.000j;
	constant_power_B 90900.000+56300.000j;
	constant_power_C 90900.000+56300.000j;
	load_class "U";
}

object load {
	name R5-12-47-1_load_14;
	parent R5-12-47-1_meter_14;
	phases "ABCN";
	nominal_voltage 7967.434;
	voltage_A 7967.434+0.0j;
	voltage_B -3983.717-6900.000j;
	voltage_C -3983.717+6900.000j;
	constant_power_A 30900.000+19200.000j;
	constant_power_B 66500.000+20300.000j;
	constant_power_C 47700.000+50500.000j;
	load_class "U";
}

object load {
	name R5-12-47-1_load_15;
	parent R5-12-47-1_meter_15;
	phases "ABCN";
	nominal_voltage 7967.434;
	voltage_A 7967.434+0.0j;
	voltage_B -3983.717-6900.000j;
	voltage_C -3983.717+6900.000j;
	constant_power_A 119800.000+74300.000j;
	constant_power_B 119800.000+74300.000j;
	constant_power_C 119800.000+74300.000j;
	load_class "U";
}

object load {
	name R5-12-47-1_load_16;
	parent R5-12-47-1_meter_16;
	phases "ABCN";
	nominal_voltage 7967.434;
	voltage_A 7967.434+0.0j;
	voltage_B -3983.717-6900.000j;
	voltage_C -3983.717+6900.000j;
	constant_power_A 69600.000+80100.000j;
	constant_power_B 69600.000+80100.000j;
	constant_power_C 69600.000+80100.000j;
	load_class "U";
}

object load {
	name R5-12-47-1_load_17;
	parent R5-12-47-1_meter_17;
	phases "ABCN";
	nominal_voltage 7967.434;
	voltage_A 7967.434+0.0j;
	voltage_B -3983.717-6900.000j;
	voltage_C -3983.717+6900.000j;
	constant_power_A 123400.000+76500.000j;
	constant_power_B 123400.000+76500.000j;
	constant_power_C 123400.000+76500.000j;
	load_class "U";
}

object load {
	name R5-12-47-1_load_18;
	parent R5-12-47-1_meter_18;
	phases "ABCN";
	nominal_voltage 7967.434;
	voltage_A 7967.434+0.0j;
	voltage_B -3983.717-6900.000j;
	voltage_C -3983.717+6900.000j;
	constant_power_A 4100.000+7700.000j;
	constant_power_B 78900.000+43700.000j;
	constant_power_C 0.000+0.000j;
	load_class "U";
}

object load {
	name R5-12-47-1_load_19;
	parent R5-12-47-1_meter_19;
	phases "ABCN";
	nominal_voltage 7967.434;
	voltage_A 7967.434+0.0j;
	voltage_B -3983.717-6900.000j;
	voltage_C -3983.717+6900.000j;
	constant_power_A 0.000+0.000j;
	constant_power_B 0.000+0.000j;
	constant_power_C 0.000+0.000j;
	load_class "U";
}

object load {
	name R5-12-47-1_load_20;
	parent R5-12-47-1_meter_20;
	phases "ABCN";
	nominal_voltage 7967.434;
	voltage_A 7967.434+0.0j;
	voltage_B -3983.717-6900.000j;
	voltage_C -3983.717+6900.000j;
	constant_power_A 103400.000+57900.000j;
	constant_power_B 400.000+0.000j;
	constant_power_C 0.000+0.000j;
	load_class "U";
}

object load {
	name R5-12-47-1_load_21;
	parent R5-12-47-1_meter_21;
	phases "ABCN";
	nominal_voltage 7967.434;
	voltage_A 7967.434+0.0j;
	voltage_B -3983.717-6900.000j;
	voltage_C -3983.717+6900.000j;
	constant_power_A 80100.000+49700.000j;
	constant_power_B 80100.000+49700.000j;
	constant_power_C 80100.000+49700.000j;
	load_class "U";
}


object meter:110 {
	name R5-12-47-1_meter_1;
	phases "ABCN";
	nominal_voltage 7967.434;
	voltage_A 7967.434+0.0j;
	voltage_B -3983.717-6900.000j;
	voltage_C -3983.717+6900.000j;
}

object meter:126 {
	name R5-12-47-1_meter_2;
	phases "ABCN";
	nominal_voltage 7967.434;
	voltage_A 7967.434+0.0j;
	voltage_B -3983.717-6900.000j;
	voltage_C -3983.717+6900.000j;
}

object meter:128 {
	name R5-12-47-1_meter_3;
	phases "ABCN";
	nominal_voltage 7967.434;
	voltage_A 7967.434+0.0j;
	voltage_B -3983.717-6900.000j;
	voltage_C -3983.717+6900.000j;
}

object meter:139 {
	name R5-12-47-1_meter_4;
	phases "ABCN";
	nominal_voltage 7967.434;
	voltage_A 7967.434+0.0j;
	voltage_B -3983.717-6900.000j;
	voltage_C -3983.717+6900.000j;
}

object meter:150 {
	name R5-12-47-1_meter_5;
	phases "ABCN";
	nominal_voltage 7967.434;
	voltage_A 7967.434+0.0j;
	voltage_B -3983.717-6900.000j;
	voltage_C -3983.717+6900.000j;
}

object meter:152 {
	name R5-12-47-1_meter_6;
	phases "ABCN";
	nominal_voltage 7967.434;
	voltage_A 7967.434+0.0j;
	voltage_B -3983.717-6900.000j;
	voltage_C -3983.717+6900.000j;
}

object meter:163 {
	name R5-12-47-1_meter_7;
	phases "ABCN";
	nominal_voltage 7967.434;
	voltage_A 7967.434+0.0j;
	voltage_B -3983.717-6900.000j;
	voltage_C -3983.717+6900.000j;
}

object meter:165 {
	name R5-12-47-1_meter_8;
	phases "ABCN";
	nominal_voltage 7967.434;
	voltage_A 7967.434+0.0j;
	voltage_B -3983.717-6900.000j;
	voltage_C -3983.717+6900.000j;
}

object meter:167 {
	name R5-12-47-1_meter_9;
	phases "ABCN";
	nominal_voltage 7967.434;
	voltage_A 7967.434+0.0j;
	voltage_B -3983.717-6900.000j;
	voltage_C -3983.717+6900.000j;
}

object meter:175 {
	name R5-12-47-1_meter_10;
	phases "ABCN";
	nominal_voltage 7967.434;
	voltage_A 7967.434+0.0j;
	voltage_B -3983.717-6900.000j;
	voltage_C -3983.717+6900.000j;
}

object meter:201 {
	name R5-12-47-1_meter_11;
	phases "ABCN";
	nominal_voltage 7967.434;
	voltage_A 7967.434+0.0j;
	voltage_B -3983.717-6900.000j;
	voltage_C -3983.717+6900.000j;
}

object meter:233 {
	name R5-12-47-1_meter_12;
	phases "ABCN";
	nominal_voltage 7967.434;
	voltage_A 7967.434+0.0j;
	voltage_B -3983.717-6900.000j;
	voltage_C -3983.717+6900.000j;
}

object meter:265 {
	name R5-12-47-1_meter_13;
	phases "ABCN";
	nominal_voltage 7967.434;
	voltage_A 7967.434+0.0j;
	voltage_B -3983.717-6900.000j;
	voltage_C -3983.717+6900.000j;
}

object meter:279 {
	name R5-12-47-1_meter_14;
	phases "ABCN";
	nominal_voltage 7967.434;
	voltage_A 7967.434+0.0j;
	voltage_B -3983.717-6900.000j;
	voltage_C -3983.717+6900.000j;
}

object meter:287 {
	name R5-12-47-1_meter_15;
	phases "ABCN";
	nominal_voltage 7967.434;
	voltage_A 7967.434+0.0j;
	voltage_B -3983.717-6900.000j;
	voltage_C -3983.717+6900.000j;
}

object meter:289 {
	name R5-12-47-1_meter_16;
	phases "ABCN";
	nominal_voltage 7967.434;
	voltage_A 7967.434+0.0j;
	voltage_B -3983.717-6900.000j;
	voltage_C -3983.717+6900.000j;
}

object meter:291 {
	name R5-12-47-1_meter_17;
	phases "ABCN";
	nominal_voltage 7967.434;
	voltage_A 7967.434+0.0j;
	voltage_B -3983.717-6900.000j;
	voltage_C -3983.717+6900.000j;
}

object meter:299 {
	name R5-12-47-1_meter_18;
	phases "ABCN";
	nominal_voltage 7967.434;
	voltage_A 7967.434+0.0j;
	voltage_B -3983.717-6900.000j;
	voltage_C -3983.717+6900.000j;
}

object meter:301 {
	name R5-12-47-1_meter_19;
	phases "ABCN";
	nominal_voltage 7967.434;
	voltage_A 7967.434+0.0j;
	voltage_B -3983.717-6900.000j;
	voltage_C -3983.717+6900.000j;
}

object meter:375 {
	name R5-12-47-1_meter_20;
	phases "ABCN";
	nominal_voltage 7967.434;
	voltage_A 7967.434+0.0j;
	voltage_B -3983.717-6900.000j;
	voltage_C -3983.717+6900.000j;
}

object meter:425 {
	name R5-12-47-1_meter_21;
	phases "ABCN";
	nominal_voltage 7967.434;
	voltage_A 7967.434+0.0j;
	voltage_B -3983.717-6900.000j;
	voltage_C -3983.717+6900.000j;
}

// Meter at feeder
object meter:435 {
	name R5-12-47-1_meter_22;
	phases "ABCN";
	nominal_voltage 7967.434;
	voltage_A 7967.434+0.0j;
	voltage_B -3983.717-6900.000j;
	voltage_C -3983.717+6900.000j;
}


object node:436 {
	name R5-12-47-1_node_1;
	phases "ABCN";
	nominal_voltage 7967.434;
	voltage_A 7967.434+0.0j;
	voltage_B -3983.717-6900.000j;
	voltage_C -3983.717+6900.000j;
}

object node:437 {
	name R5-12-47-1_node_2;
	phases "ABCN";
	nominal_voltage 7967.434;
	voltage_A 7967.434+0.0j;
	voltage_B -3983.717-6900.000j;
	voltage_C -3983.717+6900.000j;
}

object node:438 {
	name R5-12-47-1_node_3;
	phases "BN";
	nominal_voltage 7967.434;
	voltage_B -3983.717-6900.000j;
}

object node:440 {
	name R5-12-47-1_node_4;
	phases "BN";
	nominal_voltage 7967.434;
	voltage_B -3983.717-6900.000j;
}

object node:441 {
	name R5-12-47-1_node_5;
	phases "ABCN";
	nominal_voltage 7967.434;
	voltage_A 7967.434+0.0j;
	voltage_B -3983.717-6900.000j;
	voltage_C -3983.717+6900.000j;
}

object node:442 {
	name R5-12-47-1_node_6;
	phases "CN";
	nominal_voltage 7967.434;
	voltage_C -3983.717+6900.000j;
}

object node:443 {
	name R5-12-47-1_node_7;
	phases "CN";
	nominal_voltage 7967.434;
	voltage_C -3983.717+6900.000j;
}

object node:444 {
	name R5-12-47-1_node_8;
	phases "CN";
	nominal_voltage 7967.434;
	voltage_C -3983.717+6900.000j;
}

object node:445 {
	name R5-12-47-1_node_9;
	phases "ABCN";
	nominal_voltage 7967.434;
	voltage_A 7967.434+0.0j;
	voltage_B -3983.717-6900.000j;
	voltage_C -3983.717+6900.000j;
}

object node:446 {
	name R5-12-47-1_node_10;
	phases "ABCN";
	nominal_voltage 7967.434;
	voltage_A 7967.434+0.0j;
	voltage_B -3983.717-6900.000j;
	voltage_C -3983.717+6900.000j;
}

object node:447 {
	name R5-12-47-1_node_11;
	phases "ABCN";
	nominal_voltage 7967.434;
	voltage_A 7967.434+0.0j;
	voltage_B -3983.717-6900.000j;
	voltage_C -3983.717+6900.000j;
}

object node:448 {
	name R5-12-47-1_node_12;
	phases "ABCN";
	nominal_voltage 7967.434;
	voltage_A 7967.434+0.0j;
	voltage_B -3983.717-6900.000j;
	voltage_C -3983.717+6900.000j;
}

object node:449 {
	name R5-12-47-1_node_13;
	phases "ABCN";
	nominal_voltage 7967.434;
	voltage_A 7967.434+0.0j;
	voltage_B -3983.717-6900.000j;
	voltage_C -3983.717+6900.000j;
}

object node:450 {
	name R5-12-47-1_node_14;
	phases "ABCN";
	nominal_voltage 7967.434;
	voltage_A 7967.434+0.0j;
	voltage_B -3983.717-6900.000j;
	voltage_C -3983.717+6900.000j;
}

object node:451 {
	name R5-12-47-1_node_15;
	phases "ABCN";
	nominal_voltage 7967.434;
	voltage_A 7967.434+0.0j;
	voltage_B -3983.717-6900.000j;
	voltage_C -3983.717+6900.000j;
}

object node:453 {
	name R5-12-47-1_node_16;
	phases "ABCN";
	nominal_voltage 7967.434;
	voltage_A 7967.434+0.0j;
	voltage_B -3983.717-6900.000j;
	voltage_C -3983.717+6900.000j;
}

object node:455 {
	name R5-12-47-1_node_17;
	phases "BN";
	nominal_voltage 7967.434;
	voltage_B -3983.717-6900.000j;
}

object node:456 {
	name R5-12-47-1_node_18;
	phases "ABCN";
	nominal_voltage 7967.434;
	voltage_A 7967.434+0.0j;
	voltage_B -3983.717-6900.000j;
	voltage_C -3983.717+6900.000j;
}

object node:457 {
	name R5-12-47-1_node_19;
	phases "ABCN";
	nominal_voltage 7967.434;
	voltage_A 7967.434+0.0j;