//*********************************************
// $Id: R5-12.47-2.glm 1132 2008-11-18 22:36:10Z dchassin $ 
//*********************************************

clock { 
	 timezone EST+5EDT;
	 timestamp '2000-01-01 0:00:00';
}

//*********************************************
// modules
module powerflow;


object triplex_line_conductor: {
	name 1/0 AA triplex;
	resistance 0.97;
	geometric_mean_radius 0.0111;
}

object triplex_line_configuration:1 {
	conductor_1 1/0 AA triplex;
	conductor_2 1/0 AA triplex;
	conductor_N 1/0 AA triplex;
	insulation_thickness 0.08;
	diameter 0.368;
}

object transformer:107  {
	phases "A|B|C|N";
	from 48_176991;
	to 48_176991_C_M;
	configuration transformer_configuration:89;
}

object meter:108 {
	name 48_176991_C_M;
	phases "ABCN";
	nominal_voltage 7199.558;
	voltage_A 7199.558+0.0j;
	voltage_B -3599.779-6235.000j;
	voltage_C -3599.779+6235.000j;
}
object transformer:109  {
	phases "A|B|C|N";
	from 36_64818;
	to 36_64818_C_M;
	configuration transformer_configuration:90;
}

object meter:110 {
	name 36_64818_C_M;
	phases "ABCN";
	nominal_voltage 7199.558;
	voltage_A 7199.558+0.0j;
	voltage_B -3599.779-6235.000j;
	voltage_C -3599.779+6235.000j;
}
object transformer:111  {
	phases "A|B|C|N";
	from 36_60993;
	to 36_60993_C_M;
	configuration transformer_configuration:90;
}

object meter:112 {
	name 36_60993_C_M;
	phases "ABCN";
	nominal_voltage 7199.558;
	voltage_A 7199.558+0.0j;
	voltage_B -3599.779-6235.000j;
	voltage_C -3599.779+6235.000j;
}
object transformer:113  {
	phases "A|B|C|N";
	from 36_58365;
	to 36_58365_C_M;
	configuration transformer_configuration:90;
}

object meter:114 {
	name 36_58365_C_M;
	phases "ABCN";
	nominal_voltage 7199.558;
	voltage_A 7199.558+0.0j;
	voltage_B -3599.779-6235.000j;
	voltage_C -3599.779+6235.000j;
}
object transformer:115  {
	phases "A|B|C|N";
	from 36_64817;
	to 36_64817_C_M;
	configuration transformer_configuration:89;
}

object meter:116 {
	name 36_64817_C_M;
	phases "ABCN";
	nominal_voltage 7199.558;
	voltage_A 7199.558+0.0j;
	voltage_B -3599.779-6235.000j;
	voltage_C -3599.779+6235.000j;
}
object transformer:117  {
	phases "AS";
	from 36_63113;
	to 36_63113_RA_M;
	configuration transformer_configuration:51;
}

object triplex_meter:118 {
	name 36_63113_RA_M;
	phases "AS";
	nominal_voltage 120;
	voltage_1 120;
	voltage_2 120;
	voltage_N 0;
}

object triplex_node:119 {
	name 36_63113_RA_TX;
	parent 36_63113_RA_M;
	phases AS;
	nominal_voltage 120;
	latitude 52N3'3.990";
	longitude 124W45'53.072";
	power_1 25.6519067039794+13.6833008282942j;
	voltage_1 120;
	voltage_2 120;
	voltage_N 0;
}

object transformer:120  {
	phases "BS";
	from 36_63113;
	to 36_63113_RB_M;
	configuration transformer_configuration:64;
}

object triplex_meter:121 {
	name 36_63113_RB_M;
	phases "BS";
	nominal_voltage 120;
	voltage_1 -60.000-103.923j;
	voltage_2 -60.000-103.923j;
	voltage_N 0;
}

object triplex_node:122 {
	name 36_63113_RB_TX;
	parent 36_63113_RB_M;
	phases BS;
	nominal_voltage 120;
	latitude 52N3'3.990";
	longitude 124W45'53.072";
	power_1 24.6318987177576+13.0267417197852j;
	voltage_1 -60.000-103.923j;
	voltage_2 -60.000-103.923j;
	voltage_N 0;
}

object transformer:123  {
	phases "CS";
	from 36_63113;
	to 36_63113_RC_M;
	configuration transformer_configuration:76;
}

object triplex_meter:124 {
	name 36_63113_RC_M;
	phases "CS";
	nominal_voltage 120;
	voltage_1 -60.000+103.923j;
	voltage_2 -60.000+103.923j;
	voltage_N 0;
}

object triplex_node:125 {
	name 36_63113_RC_TX;
	parent 36_63113_RC_M;
	phases CS;
	nominal_voltage 120;
	latitude 52N3'3.990";
	longitude 124W45'53.072";
	power_1 25.2223979392067+13.3404550138352j;
	voltage_1 -60.000+103.923j;
	voltage_2 -60.000+103.923j;
	voltage_N 0;
}

object transformer:126  {
	phases "A|B|C|N";
	from 36_65285;
	to 36_65285_C_M;
	configuration transformer_configuration:91;
}

object meter:127 {
	name 36_65285_C_M;
	phases "ABCN";
	nominal_voltage 7199.558;
	voltage_A 7199.558+0.0j;
	voltage_B -3599.779-6235.000j;
	voltage_C -3599.779+6235.000j;
}
object transformer:128  {
	phases "A|B|C|N";
	from 36_54957;
	to 36_54957_C_M;
	configuration transformer_configuration:91;
}

object meter:129 {
	name 36_54957_C_M;
	phases "ABCN";
	nominal_voltage 7199.558;
	voltage_A 7199.558+0.0j;
	voltage_B -3599.779-6235.000j;
	voltage_C -3599.779+6235.000j;
}
object transformer:130  {
	phases "A|B|C|N";
	from 36_59408;
	to 36_59408_C_M;
	configuration transformer_configuration:92;
}

object meter:131 {
	name 36_59408_C_M;
	phases "ABCN";
	nominal_voltage 7199.558;
	voltage_A 7199.558+0.0j;
	voltage_B -3599.779-6235.000j;
	voltage_C -3599.779+6235.000j;
}
object transformer:132  {
	phases "A|B|C|N";
	from 36_63112;
	to 36_63112_C_M;
	configuration transformer_configuration:90;
}

object meter:133 {
	name 36_63112_C_M;
	phases "ABCN";
	nominal_voltage 7199.558;
	voltage_A 7199.558+0.0j;
	voltage_B -3599.779-6235.000j;
	voltage_C -3599.779+6235.000j;
}
object transformer:134  {
	phases "A|B|C|N";
	from 36_64816;
	to 36_64816_C_M;
	configuration transformer_configuration:90;
}

object meter:135 {
	name 36_64816_C_M;
	phases "ABCN";
	nominal_voltage 7199.558;
	voltage_A 7199.558+0.0j;
	voltage_B -3599.779-6235.000j;
	voltage_C -3599.779+6235.000j;
}
object transformer:136  {
	phases "A|B|C|N";
	from 36_58366;
	to 36_58366_C_M;
	configuration transformer_configuration:90;
}

object meter:137 {
	name 36_58366_C_M;
	phases "ABCN";
	nominal_voltage 7199.558;
	voltage_A 7199.558+0.0j;
	voltage_B -3599.779-6235.000j;
	voltage_C -3599.779+6235.000j;
}
object transformer:138  {
	phases "A|B|C|N";
	from 36_65284;
	to 36_65284_C_M;
	configuration transformer_configuration:93;
}

object meter:139 {
	name 36_65284_C_M;
	phases "ABCN";
	nominal_voltage 7199.558;
	voltage_A 7199.558+0.0j;
	voltage_B -3599.779-6235.000j;
	voltage_C -3599.779+6235.000j;
}
object transformer:140  {
	phases "A|B|C|N";
	from 36_59395;
	to 36_59395_C_M;
	configuration transformer_configuration:89;
}

object meter:141 {
	name 36_59395_C_M;
	phases "ABCN";
	nominal_voltage 7199.558;
	voltage_A 7199.558+0.0j;
	voltage_B -3599.779-6235.000j;
	voltage_C -3599.779+6235.000j;
}
object transformer:142  {
	phases "AS";
	from 36_55242;
	to 36_55242_CA_M;
	configuration transformer_configuration:56;
}

object triplex_meter:143 {
	name 36_55242_CA_M;
	phases "AS";
	nominal_voltage 120;
	voltage_1 120;
	voltage_2 120;
	voltage_N 0;
}

object triplex_node:144 {
	name 36_55242_CA_TX;
	parent 36_55242_CA_M;
	phases AS;
	nominal_voltage 120;
	latitude 52N3'11.562";
	longitude 124W45'24.407";
	power_1 6.41297667599484+3.42082520707356j;
	voltage_1 120;
	voltage_2 120;
	voltage_N 0;
}

object transformer:145  {
	phases "A|B|C|N";
	from 36_55025;
	to 36_55025_C_M;
	configuration transformer_configuration:95;
}

object meter:146 {
	name 36_55025_C_M;
	phases "ABCN";
	nominal_voltage 7199.558;
	voltage_A 7199.558+0.0j;
	voltage_B -3599.779-6235.000j;
	voltage_C -3599.779+6235.000j;
}
object transformer:147  {
	phases "A|B|C|N";
	from 36_60451;
	to 36_60451_C_M;
	configuration transformer_configuration:95;
}

object meter:148 {
	name 36_60451_C_M;
	phases "ABCN";
	nominal_voltage 7199.558;
	voltage_A 7199.558+0.0j;
	voltage_B -3599.779-6235.000j;
	voltage_C -3599.779+6235.000j;
}
object transformer:149  {
	phases "A|B|C|N";
	from 36_59396;
	to 36_59396_C_M;
	configuration transformer_configuration:90;
}

object meter:150 {
	name 36_59396_C_M;
	phases "ABCN";
	nominal_voltage 7199.558;
	voltage_A 7199.558+0.0j;
	voltage_B -3599.779-6235.000j;
	voltage_C -3599.779+6235.000j;
}
object transformer:151  {
	phases "A|B|C|N";
	from 36_60992;
	to 36_60992_C_M;
	configuration transformer_configuration:96;
}

object meter:152 {
	name 36_60992_C_M;
	phases "ABCN";
	nominal_voltage 7199.558;
	voltage_A 7199.558+0.0j;
	voltage_B -3599.779-6235.000j;
	voltage_C -3599.779+6235.000j;
}
object transformer:153  {
	phases "AS";
	from 36_59397;
	to 36_59397_CA_M;
	configuration transformer_configuration:51;
}

object triplex_meter:154 {
	name 36_59397_CA_M;
	phases "AS";
	nominal_voltage 120;
	voltage_1 120;
	voltage_2 120;
	voltage_N 0;
}

object triplex_node:155 {
	name 36_59397_CA_TX;
	parent 36_59397_CA_M;
	phases AS;
	nominal_voltage 120;
	latitude 52N3'9.053";
	longitude 124W45'24.329";
	power_1 25.6519067039794+13.6833008282942j;
	voltage_1 120;
	voltage_2 120;
	voltage_N 0;
}

object transformer:156  {
	phases "AS";
	from 36_62290;
	to 36_62290_CA_M;
	configuration transformer_configuration:56;
}

object triplex_meter:157 {
	name 36_62290_CA_M;
	phases "AS";
	nominal_voltage 120;
	voltage_1 120;
	voltage_2 120;
	voltage_N 0;
}

object triplex_node:158 {
	name 36_62290_CA_TX;
	parent 36_62290_CA_M;
	phases AS;
	nominal_voltage 120;
	latitude 52N3'14.225";
	longitude 124W45'24.404";
	power_1 6.41297667599484+3.42082520707356j;
	voltage_1 120;
	voltage_2 120;
	voltage_N 0;
}

object transformer:159  {
	phases "A|B|C|N";
	from 36_80802;
	to 36_80802_C_M;
	configuration transformer_configuration:96;
}

object meter:160 {
	name 36_80802_C_M;
	phases "ABCN";
	nominal_voltage 7199.558;
	voltage_A 7199.558+0.0j;
	voltage_B -3599.779-6235.000j;
	voltage_C -3599.779+6235.000j;
}
object transformer:161  {
	phases "BS";
	from 36_59344;
	to 36_59344_CB_M;
	configuration transformer_configuration:65;
}

object triplex_meter:162 {
	name 36_59344_CB_M;
	phases "BS";
	nominal_voltage 120;
	voltage_1 -60.000-103.923j;
	voltage_2 -60.000-103.923j;
	voltage_N 0;
}

object triplex_node:163 {
	name 36_59344_CB_TX;
	parent 36_59344_CB_M;
	phases BS;
	nominal_voltage 120;
	latitude 52N3'15.296";
	longitude 124W45'29.341";
	power_1 12.3159493588788+6.51337085989258j;
	voltage_1 -60.000-103.923j;
	voltage_2 -60.000-103.923j;
	voltage_N 0;
}

object transformer:164  {
	phases "BS";
	from 36_64764;
	to 36_64764_CB_M;
	configuration transformer_configuration:70;
}

object triplex_meter:165 {
	name 36_64764_CB_M;
	phases "BS";
	nominal_voltage 120;
	voltage_1 -60.000-103.923j;
	voltage_2 -60.000-103.923j;
	voltage_N 0;
}

object triplex_node:166 {
	name 36_64764_CB_TX;
	parent 36_64764_CB_M;
	phases BS;
	nominal_voltage 120;
	latitude 52N3'16.853";
	longitude 124W45'30.695";
	power_1 6.15797467943941+3.25668542994629j;
	voltage_1 -60.000-103.923j;
	voltage_2 -60.000-103.923j;
	voltage_N 0;
}

object transformer:167  {
	phases "AS";
	from 36_157901;
	to 36_157901_RA_M;
	configuration transformer_configuration:52;
}

object triplex_meter:168 {
	name 36_157901_RA_M;
	phases "AS";
	nominal_voltage 120;
	voltage_1 120;
	voltage_2 120;
	voltage_N 0;
}

object triplex_node:169 {
	name 36_157901_RA_TX;
	parent 36_157901_RA_M;
	phases AS;
	nominal_voltage 120;
	latitude 52N3'2.204";
	longitude 124W45'45.591";
	power_1 12.8259533519897+6.84165041414712j;
	voltage_1 120;
	voltage_2 120;
	voltage_N 0;
}

object transformer:170  {
	phases "CS";
	from 36_157901;
	to 36_157901_RC_M;
	configuration transformer_configuration:77;
}

object triplex_meter:171 {
	name 36_157901_RC_M;
	phases "CS";
	nominal_voltage 120;
	voltage_1 -60.000+103.923j;
	voltage_2 -60.000+103.923j;
	voltage_N 0;
}

object triplex_node:172 {
	name 36_157901_RC_TX;
	parent 36_157901_RC_M;
	phases CS;
	nominal_voltage 120;
	latitude 52N3'2.204";
	longitude 124W45'45.591";
	power_1 0+0j;
	voltage_1 -60.000+103.923j;
	voltage_2 -60.000+103.923j;
	voltage_N 0;
}

object transformer:173  {
	phases "AS";
	from 36_62245;
	to 36_62245_RA_M;
	configuration transformer_configuration:52;
}

object triplex_meter:174 {
	name 36_62245_RA_M;
	phases "AS";
	nominal_voltage 120;
	voltage_1 120;
	voltage_2 120;
	voltage_N 0;
}

object triplex_node:175 {
	name 36_62245_RA_TX;
	parent 36_62245_RA_M;
	phases AS;
	nominal_voltage 120;
	latitude 52N3'2.208";
	longitude 124W45'44.092";
	power_1 12.8259533519897+6.84165041414712j;
	voltage_1 120;
	voltage_2 120;
	voltage_N 0;
}

object transformer:176  {
	phases "CS";
	from 36_62245;
	to 36_62245_RC_M;
	configuration transformer_configuration:77;
}

object triplex_meter:177 {
	name 36_62245_RC_M;
	phases "CS";
	nominal_voltage 120;
	voltage_1 -60.000+103.923j;
	voltage_2 -60.000+103.923j;
	voltage_N 0;
}

object triplex_node:178 {
	name 36_62245_RC_TX;
	parent 36_62245_RC_M;
	phases CS;
	nominal_voltage 120;
	latitude 52N3'2.208";
	longitude 124W45'44.092";
	power_1 0+0j;
	voltage_1 -60.000+103.923j;
	voltage_2 -60.000+103.923j;
	voltage_N 0;
}

object transformer:179  {
	phases "AS";
	from 36_187343;
	to 36_187343_RA_M;
	configuration transformer_configuration:51;
}

object triplex_meter:180 {
	name 36_187343_RA_M;
	phases "AS";
	nominal_voltage 120;
	voltage_1 120;
	voltage_2 120;
	voltage_N 0;
}

object triplex_node:181 {
	name 36_187343_RA_TX;
	parent 36_187343_RA_M;
	phases AS;
	nominal_voltage 120;
	latitude 52N3'12.328";
	longitude 124W45'53.657";
	power_1 25.6519067039794+13.6833008282942j;
	voltage_1 120;
	voltage_2 120;
	voltage_N 0;
}

object transformer:182  {
	phases "AS";
	from 36_187342;
	to 36_187342_RA_M;
	configuration transformer_configuration:51;
}

object triplex_meter:183 {
	name 36_187342_RA_M;
	phases "AS";
	nominal_voltage 120;
	voltage_1 120;
	voltage_2 120;
	voltage_N 0;
}

object triplex_node:184 {
	name 36_187342_RA_TX;
	parent 36_187342_RA_M;
	phases AS;
	nominal_voltage 120;
	latitude 52N3'12.320";
	longitude 124W45'51.075";
	power_1 25.6519067039794+13.6833008282942j;
	voltage_1 120;
	voltage_2 120;
	voltage_N 0;
}

object transformer:185  {
	phases "BS";
	from 36_187342;
	to 36_187342_RB_M;
	configuration transformer_configuration:64;
}

object triplex_meter:186 {
	name 36_187342_RB_M;
	phases "BS";
	nominal_voltage 120;
	voltage_1 -60.000-103.923j;
	voltage_2 -60.000-103.923j;
	voltage_N 0;
}

object triplex_node:187 {
	name 36_187342_RB_TX;
	parent 36_187342_RB_M;
	phases BS;
	nominal_voltage 120;
	latitude 52N3'12.320";
	longitude 124W45'51.075";
	power_1 24.6318987177576+13.0267417197852j;
	voltage_1 -60.000-103.923j;
	voltage_2 -60.000-103.923j;
	voltage_N 0;
}

object transformer:188  {
	phases "CS";
	from 36_187342;
	to 36_187342_RC_M;
	configuration transformer_configuration:76;
}

object triplex_meter:189 {
	name 36_187342_RC_M;
	phases "CS";
	nominal_voltage 120;
	voltage_1 -60.000+103.923j;
	voltage_2 -60.000+103.923j;
	voltage_N 0;
}

object triplex_node:190 {
	name 36_187342_RC_TX;
	parent 36_187342_RC_M;
	phases CS;
	nominal_voltage 120;
	latitude 52N3'12.320";
	longitude 124W45'51.075";
	power_1 25.2223979392067+13.3404550138352j;
	voltage_1 -60.000+103.923j;
	voltage_2 -60.000+103.923j;
	voltage_N 0;
}

object transformer:191  {
	phases "AS";
	from 36_62238;
	to 36_62238_RA_M;
	configuration transformer_configuration:58;
}

object triplex_meter:192 {
	name 36_62238_RA_M;
	phases "AS";
	nominal_voltage 120;
	voltage_1 120;
	voltage_2 120;
	voltage_N 0;
}

object triplex_node:193 {
	name 36_62238_RA_TX;
	parent 36_62238_RA_M;
	phases AS;
	nominal_voltage 120;
	latitude 52N3'12.447";
	longitude 124W45'46.505";
	power_1 7.05427434359433+3.76290772778092j;
	voltage_1 120;
	voltage_2 120;
	voltage_N 0;
}

object transformer:194  {
	phases "CS";
	from 36_62238;
	to 36_62238_RC_M;
	configuration transformer_configuration:83;
}

object triplex_meter:195 {
	name 36_62238_RC_M;
	phases "CS";
	nominal_voltage 120;
	voltage_1 -60.000+103.923j;
	voltage_2 -60.000+103.923j;
	voltage_N 0;
}

object triplex_node:196 {
	name 36_62238_RC_TX;
	parent 36_62238_RC_M;
	phases CS;
	nominal_voltage 120;
	latitude 52N3'12.447";
	longitude 124W45'46.505";
	power_1 6.93615943328183+3.66862512880468j;
	voltage_1 -60.000+103.923j;
	voltage_2 -60.000+103.923j;
	voltage_N 0;
}

object transformer:197  {
	phases "AS";
	from 36_190222;
	to 36_190222_RA_M;
	configuration transformer_configuration:56;
}

object triplex_meter:198 {
	name 36_190222_RA_M;
	phases "AS";
	nominal_voltage 120;
	voltage_1 120;
	voltage_2 120;
	voltage_N 0;
}

object triplex_node:199 {
	name 36_190222_RA_TX;
	parent 36_190222_RA_M;
	phases AS;
	nominal_voltage 120;
	latitude 52N3'8.920";
	longitude 124W45'37.941";
	power_1 6.41297667599484+3.42082520707356j;
	voltage_1 120;
	voltage_2 120;
	voltage_N 0;
}

object transformer:200  {
	phases "CS";
	from 36_190222;
	to 36_190222_RC_M;
	configuration transformer_configuration:81;
}

object triplex_meter:201 {
	name 36_190222_RC_M;
	phases "CS";
	nominal_voltage 120;
	voltage_1 -60.000+103.923j;
	voltage_2 -60.000+103.923j;
	voltage_N 0;
}

object triplex_node:202 {
	name 36_190222_RC_TX;
	parent 36_190222_RC_M;
	phases CS;
	nominal_voltage 120;
	latitude 52N3'8.920";
	longitude 124W45'37.941";
	power_1 0+0j;
	voltage_1 -60.000+103.923j;
	voltage_2 -60.000+103.923j;
	voltage_N 0;
}

object transformer:203  {
	phases "AS";
	from 36_187341;
	to 36_187341_RA_M;
	configuration transformer_configuration:56;
}

object triplex_meter:204 {
	name 36_187341_RA_M;
	phases "AS";
	nominal_voltage 120;
	voltage_1 120;
	voltage_2 120;
	voltage_N 0;
}

object triplex_node:205 {
	name 36_187341_RA_TX;
	parent 36_187341_RA_M;
	phases AS;
	nominal_voltage 120;
	latitude 52N3'12.318";
	longitude 124W45'49.883";
	power_1 6.41297667599484+3.42082520707356j;
	voltage_1 120;
	voltage_2 120;
	voltage_N 0;
}

object transformer:206  {
	phases "CS";
	from 36_187341;
	to 36_187341_RC_M;
	configuration transformer_configuration:81;
}

object triplex_meter:207 {
	name 36_187341_RC_M;
	phases "CS";
	nominal_voltage 120;
	voltage_1 -60.000+103.923j;
	voltage_2 -60.000+103.923j;
	voltage_N 0;
}

object triplex_node:208 {
	name 36_187341_RC_TX;
	parent 36_187341_RC_M;
	phases CS;
	nominal_voltage 120;
	latitude 52N3'12.318";
	longitude 124W45'49.883";
	power_1 0+0j;
	voltage_1 -60.000+103.923j;
	voltage_2 -60.000+103.923j;
	voltage_N 0;
}

object transformer:209  {
	phases "AS";
	from 36_95197;
	to 36_95197_CA_M;
	configuration transformer_configuration:52;
}

object triplex_meter:210 {
	name 36_95197_CA_M;
	phases "AS";
	nominal_voltage 120;
	voltage_1 120;
	voltage_2 120;
	voltage_N 0;
}

object triplex_node:211 {
	name 36_95197_CA_TX;
	parent 36_95197_CA_M;
	phases AS;
	nominal_voltage 120;
	latitude 52N3'24.624";
	longitude 124W45'41.144";
	power_1 12.8259533519897+6.84165041414712j;
	voltage_1 120;
	voltage_2 120;
	voltage_N 0;
}

object transformer:212  {
	phases "AS";
	from 1460_48170;
	to 1460_48170_CA_M;
	configuration transformer_configuration:59;
}

object triplex_meter:213 {
	name 1460_48170_CA_M;
	phases "AS";
	nominal_voltage 120;
	voltage_1 120;
	voltage_2 120;
	voltage_N 0;
}

object triplex_node:214 {
	name 1460_48170_CA_TX;
	parent 1460_48170_CA_M;
	phases AS;
	nominal_voltage 120;
	latitude 52N3'15.697";
	longitude 124W45'39.478";
	power_1 9.61946501399226+5.13123781061034j;
	voltage_1 120;
	voltage_2 120;
	voltage_N 0;
}

object transformer:215  {
	phases "CS";
	from 1460_48170;
	to 1460_48170_CC_M;
	configuration transformer_configuration:84;
}

object triplex_meter:216 {
	name 1460_48170_CC_M;
	phases "CS";
	nominal_voltage 120;
	voltage_1 -60.000+103.923j;
	voltage_2 -60.000+103.923j;
	voltage_N 0;
}

object triplex_node:217 {
	name 1460_48170_CC_TX;
	parent 1460_48170_CC_M;
	phases AS;
	nominal_voltage 120;
	latitude 52N3'15.697";
	longitude 124W45'39.478";
	power_1 9.4583992272025+5.0026706301882j;
	voltage_1 -60.000+103.923j;
	voltage_2 -60.000+103.923j;
	voltage_N 0;
}

object transformer:218  {
	phases "BS";
	from 45_12596;
	to 45_12596_RB_M;
	configuration transformer_configuration:71;
}

object triplex_meter:219 {
	name 45_12596_RB_M;
	phases "BS";
	nominal_voltage 120;
	voltage_1 -60.000-103.923j;
	voltage_2 -60.000-103.923j;
	voltage_N 0;
}

object triplex_node:220 {
	name 45_12596_RB_TX;
	parent 45_12596_RB_M;
	phases BS;
	nominal_voltage 120;
	latitude 52N2'59.441";
	longitude 124W45'48.841";
	power_1 18.4739240383182+9.77005628983887j;
	voltage_1 -60.000-103.923j;
	voltage_2 -60.000-103.923j;
	voltage_N 0;
}

object transformer:221  {
	phases "AS";
	from 36_63408;
	to 36_63408_RA_M;
	configuration transformer_configuration:52;
}

object triplex_meter:222 {
	name 36_63408_RA_M;
	phases "AS";
	nominal_voltage 120;
	voltage_1 120;
	voltage_2 120;
	voltage_N 0;
}

object triplex_node:223 {
	name 36_63408_RA_TX;
	parent 36_63408_RA_M;
	phases AS;
	nominal_voltage 120;
	latitude 52N3'4.115";
	longitude 124W45'35.383";
	power_1 12.8259533519897+6.84165041414712j;
	voltage_1 120;
	voltage_2 120;
	voltage_N 0;
}

object transformer:224  {
	phases "BS";
	from 36_62243;
	to 36_62243_RB_M;
	configuration transformer_configuration:65;
}

object triplex_meter:225 {
	name 36_62243_RB_M;
	phases "BS";
	nominal_voltage 120;
	voltage_1 -60.000-103.923j;
	voltage_2 -60.000-103.923j;
	voltage_N 0;
}

object triplex_node:226 {
	name 36_62243_RB_TX;
	parent 36_62243_RB_M;
	phases BS;
	nominal_voltage 120;
	latitude 52N3'8.790";
	longitude 124W45'56.257";
	power_1 12.3159493588788+6.51337085989258j;
	voltage_1 -60.000-103.923j;
	voltage_2 -60.000-103.923j;
	voltage_N 0;
}

object transformer:227  {
	phases "BS";
	from 36_59345;
	to 36_59345_RB_M;
	configuration transformer_configuration:64;
}

object triplex_meter:228 {
	name 36_59345_RB_M;
	phases "BS";
	nominal_voltage 120;
	voltage_1 -60.000-103.923j;
	voltage_2 -60.000-103.923j;
	voltage_N 0;
}

object triplex_node:229 {
	name 36_59345_RB_TX;
	parent 36_59345_RB_M;
	phases BS;
	nominal_voltage 120;
	latitude 52N3'5.682";
	longitude 124W46'3.748";
	power_1 24.6318987177576+13.0267417197852j;
	voltage_1 -60.000-103.923j;
	voltage_2 -60.000-103.923j;
	voltage_N 0;
}

object transformer:230  {
	phases "BS";
	from 36_56827;
	to 36_56827_RB_M;
	configuration transformer_configuration:65;
}

object triplex_meter:231 {
	name 36_56827_RB_M;
	phases "BS";
	nominal_voltage 120;
	voltage_1 -60.000-103.923j;
	voltage_2 -60.000-103.923j;
	voltage_N 0;
}

object triplex_node:232 {
	name 36_56827_RB_TX;
	parent 36_56827_RB_M;
	phases BS;
	nominal_voltage 120;
	latitude 52N3'5.554";
	longitude 124W45'59.068";
	power_1 12.3159493588788+6.51337085989258j;
	voltage_1 -60.000-103.923j;
	voltage_2 -60.000-103.923j;
	voltage_N 0;
}

object transformer:233  {
	phases "A|B|C|N";
	from 36_63406;
	to 36_63406_C_M;
	configuration transformer_configuration:96;
}

object meter:234 {
	name 36_63406_C_M;
	phases "ABCN";
	nominal_voltage 7199.558;
	voltage_A 7199.558+0.0j;
	voltage_B -3599.779-6235.000j;
	voltage_C -3599.779+6235.000j;
}
object transformer:235  {
	phases "AS";
	from 36_62239;
	to 36_62239_CA_M;
	configuration transformer_configuration:59;
}

object triplex_meter:236 {
	name 36_62239_CA_M;
	phases "AS";
	nominal_voltage 120;
	voltage_1 120;
	voltage_2 120;
	voltage_N 0;
}

object triplex_node:237 {
	name 36_62239_CA_TX;
	parent 36_62239_CA_M;
	phases AS;
	nominal_voltage 120;
	latitude 52N3'14.164";
	longitude 124W45'39.452";
	power_1 9.61946501399226+5.13123781061034j;
	voltage_1 120;
	voltage_2 120;
	voltage_N 0;
}

object transformer:238  {
	phases "CS";
	from 36_62239;
	to 36_62239_CC_M;
	configuration transformer_configuration:84;
}

object triplex_meter:239 {
	name 36_62239_CC_M;
	phases "CS";
	nominal_voltage 120;
	voltage_1 -60.000+103.923j;
	voltage_2 -60.000+103.923j;
	voltage_N 0;
}

object triplex_node:240 {
	name 36_62239_CC_TX;
	parent 36_62239_CC_M;
	phases AS;
	nominal_voltage 120;
	latitude 52N3'14.164";
	longitude 124W45'39.452";
	power_1 9.4583992272025+5.0026706301882j;
	voltage_1 -60.000+103.923j;
	voltage_2 -60.000+103.923j;
	voltage_N 0;
}

object transformer:241  {
	phases "BS";
	from 36_55227;
	to 36_55227_RB_M;
	configuration transformer_configuration:70;
}

object triplex_meter:242 {
	name 36_55227_RB_M;
	phases "BS";
	nominal_voltage 120;
	voltage_1 -60.000-103.923j;
	voltage_2 -60.000-103.923j;
	voltage_N 0;
}

object triplex_node:243 {
	name 36_55227_RB_TX;
	parent 36_55227_RB_M;
	phases BS;
	nominal_voltage 120;
	latitude 52N3'5.737";
	longitude 124W45'35.203";
	power_1 6.15797467943941+3.25668542994629j;
	voltage_1 -60.000-103.923j;
	voltage_2 -60.000-103.923j;
	voltage_N 0;
}

object transformer:244  {
	phases "A|B|C|N";
	from 36_57992;
	to 36_57992_C_M;
	configuration transformer_configuration:102;
}

object meter:245 {
	name 36_57992_C_M;
	phases "ABCN";
	nominal_voltage 7199.558;
	voltage_A 7199.558+0.0j;
	voltage_B -3599.779-6235.000j;
	voltage_C -3599.779+6235.000j;
}
object transformer:246  {
	phases "AS";
	from 36_63768;
	to 36_63768_RA_M;
	configuration transformer_configuration:56;
}

object triplex_meter:247 {
	name 36_63768_RA_M;
	phases "AS";
	nominal_voltage 120;
	voltage_1 120;
	voltage_2 120;
	voltage_N 0;
}

object triplex_node:248 {
	name 36_63768_RA_TX;
	parent 36_63768_RA_M;
	phases AS;
	nominal_voltage 120;
	latitude 52N3'8.953";
	longitude 124W45'39.672";
	power_1 6.41297667599484+3.42082520707356j;
	voltage_1 120;
	voltage_2 120;
	voltage_N 0;
}

object transformer:249  {
	phases "CS";
	from 36_63768;
	to 36_63768_RC_M;
	configuration transformer_configuration:81;
}

object triplex_meter:250 {
	name 36_63768_RC_M;
	phases "CS";
	nominal_voltage 120;
	voltage_1 -60.000+103.923j;
	voltage_2 -60.000+103.923j;
	voltage_N 0;
}

object triplex_node:251 {
	name 36_63768_RC_TX;
	parent 36_63768_RC_M;
	phases CS;
	nominal_voltage 120;
	latitude 52N3'8.953";
	longitude 124W45'39.672";
	power_1 0+0j;
	voltage_1 -60.000+103.923j;
	voltage_2 -60.000+103.923j;
	voltage_N 0;
}

object transformer:252  {
	phases "BS";
	from 36_55558;
	to 36_55558_RB_M;
	configuration transformer_configuration:65;
}

object triplex_meter:253 {
	name 36_55558_RB_M;
	phases "BS";
	nominal_voltage 120;
	voltage_1 -60.000-103.923j;
	voltage_2 -60.000-103.923j;
	voltage_N 0;
}

object triplex_node:254 {
	name 36_55558_RB_TX;
	parent 36_55558_RB_M;
	phases BS;
	nominal_voltage 120;
	latitude 52N3'5.516";
	longitude 124W45'46.598";
	power_1 12.3159493588788+6.51337085989258j;
	voltage_1 -60.000-103.923j;
	voltage_2 -60.000-103.923j;
	voltage_N 0;
}

object transformer:255  {
	phases "AS";
	from 36_64765;
	to 36_64765_RA_M;
	configuration transformer_configuration:61;
}

object triplex_meter:256 {
	name 36_64765_RA_M;
	phases "AS";
	nominal_voltage 120;
	voltage_1 120;
	voltage_2 120;
	voltage_N 0;
}

object triplex_node:257 {
	name 36_64765_RA_TX;
	parent 36_64765_RA_M;
	phases AS;
	nominal_voltage 120;
	latitude 52N3'8.675";
	longitude 124W46'5.995";
	power_1 16.0324416899871+8.55206301768391j;
	voltage_1 120;
	voltage_2 120;
	voltage_N 0;
}

object transformer:258  {
	phases "BS";
	from 36_64765;
	to 36_64765_RB_M;
	configuration transformer_configuration:72;
}

object triplex_meter:259 {
	name 36_64765_RB_M;
	phases "BS";
	nominal_voltage 120;
	voltage_1 -60.000-103.923j;
	voltage_2 -60.000-103.923j;
	voltage_N 0;
}

object triplex_node:260 {
	name 36_64765_RB_TX;
	parent 36_64765_RB_M;
	phases BS;
	nominal_voltage 120;
	latitude 52N3'8.675";
	longitude 124W46'5.995";
	power_1 15.3949366985985+8.14171357486572j;
	voltage_1 -60.000-103.923j;
	voltage_2 -60.000-103.923j;
	voltage_N 0;
}

object transformer:261  {
	phases "CS";
	from 36_64765;
	to 36_64765_RC_M;
	configuration transformer_configuration:86;
}

object triplex_meter:262 {
	name 36_64765_RC_M;
	phases "CS";
	nominal_voltage 120;
	voltage_1 -60.000+103.923j;
	voltage_2 -60.000+103.923j;
	voltage_N 0;
}

object triplex_node:263 {
	name 36_64765_RC_TX;
	parent 36_64765_RC_M;
	phases CS;
	nominal_voltage 120;
	latitude 52N3'8.675";
	longitude 124W46'5.995";
	power_1 0+0j;
	voltage_1 -60.000+103.923j;
	voltage_2 -60.000+103.923j;
	voltage_N 0;
}

object transformer:264  {
	phases "BS";
	from 36_63558;
	to 36_63558_RB_M;
	configuration transformer_configuration:65;
}

object triplex_meter:265 {
	name 36_63558_RB_M;
	phases "BS";
	nominal_voltage 120;
	voltage_1 -60.000-103.923j;
	voltage_2 -60.000-103.923j;
	voltage_N 0;
}

object triplex_node:266 {
	name 36_63558_RB_TX;
	parent 36_63558_RB_M;
	phases BS;
	nominal_voltage 120;
	latitude 52N3'5.635";
	longitude 124W45'56.237";
	power_1 12.3159493588788+6.51337085989258j;
	voltage_1 -60.000-103.923j;
	voltage_2 -60.000-103.923j;
	voltage_N 0;
}

object transformer:267  {
	phases "A|B|C|N";
	from 36_62240;
	to 36_62240_C_M;
	configuration transformer_configuration:96;
}

object meter:268 {
	name 36_62240_C_M;
	phases "ABCN";
	nominal_voltage 7199.558;
	voltage_A 7199.558+0.0j;
	voltage_B -3599.779-6235.000j;
	voltage_C -3599.779+6235.000j;
}
object transformer:269  {
	phases "AS";
	from 36_59346;
	to 36_59346_RA_M;
	configuration transformer_configuration:52;
}

object triplex_meter:270 {
	name 36_59346_RA_M;
	phases "AS";
	nominal_voltage 120;
	voltage_1 120;
	voltage_2 120;
	voltage_N 0;
}

object triplex_node:271 {
	name 36_59346_RA_TX;
	parent 36_59346_RA_M;
	phases AS;
	nominal_voltage 120;
	latitude 52N3'10.569";
	longitude 124W45'58.827";
	power_1 12.8259533519897+6.84165041414712j;
	voltage_1 120;
	voltage_2 120;
	voltage_N 0;
}

object transformer:272  {
	phases "CS";
	from 36_59346;
	to 36_59346_RC_M;
	configuration transformer_configuration:77;
}

object triplex_meter:273 {
	name 36_59346_RC_M;
	phases "CS";
	nominal_voltage 120;
	voltage_1 -60.000+103.923j;
	voltage_2 -60.000+103.923j;
	voltage_N 0;
}

object triplex_node:274 {
	name 36_59346_RC_TX;
	parent 36_59346_RC_M;
	phases CS;
	nominal_voltage 120;
	latitude 52N3'10.569";
	longitude 124W45'58.827";
	power_1 0+0j;
	voltage_1 -60.000+103.923j;
	voltage_2 -60.000+103.923j;
	voltage_N 0;
}

object transformer:275  {
	phases "A|B|C|N";
	from 36_62235;
	to 36_62235_C_M;
	configuration transformer_configuration:89;
}

object meter:276 {
	name 36_62235_C_M;
	phases "ABCN";
	nominal_voltage 7199.558;
	voltage_A 7199.558+0.0j;
	voltage_B -3599.779-6235.000j;
	voltage_C -3599.779+6235.000j;
}
object transformer:277  {
	phases "BS";
	from 36_64767;
	to 36_64767_RB_M;
	configuration transformer_configuration:70;
}

object triplex_meter:278 {
	name 36_64767_RB_M;
	phases "BS";
	nominal_voltage 120;
	voltage_1 -60.000-103.923j;
	voltage_2 -60.000-103.923j;
	voltage_N 0;
}

object triplex_node:279 {
	name 36_64767_RB_TX;
	parent 36_64767_RB_M;
	phases BS;
	nominal_voltage 120;
	latitude 52N2'50.060";
	longitude 124W45'36.542";