// $Id: R5-12.47-2.glm 228 2009-05-27 18:16:10Z ychen $ 
//*********************************************

clock { 
	 timezone EST+5EDT;
	 timestamp '2000-01-01 0:00:00';
}

//*********************************************
// modules
module powerflow;


object fuse:896 {
	name R5-12-47-2_fuse_1;
	phases "ABCN";
	from R5-12-47-2_node_273;
	to R5-12-47-2_node_114;
	current_limit 5000.0;
	status CLOSED;
}

object fuse:898 {
	name R5-12-47-2_fuse_2;
	phases "ABCN";
	from R5-12-47-2_node_258;
	to R5-12-47-2_node_125;
	current_limit 5000.0;
	status CLOSED;
}

object fuse:904 {
	name R5-12-47-2_fuse_3;
	phases "ABCN";
	from R5-12-47-2_node_264;
	to R5-12-47-2_node_144;
	current_limit 5000.0;
	status CLOSED;
}

object fuse:905 {
	name R5-12-47-2_fuse_4;
	phases "ABCN";
	from R5-12-47-2_node_278;
	to R5-12-47-2_node_115;
	current_limit 5000.0;
	status CLOSED;
}

object fuse:911 {
	name R5-12-47-2_fuse_5;
	phases "ABCN";
	from R5-12-47-2_node_305;
	to R5-12-47-2_node_133;
	current_limit 5000.0;
	status CLOSED;
}

object fuse:922 {
	name R5-12-47-2_fuse_6;
	phases "ABCN";
	from R5-12-47-2_node_309;
	to R5-12-47-2_node_147;
	current_limit 5000.0;
	status CLOSED;
}

object fuse:924 {
	name R5-12-47-2_fuse_7;
	phases "ABCN";
	from R5-12-47-2_node_279;
	to R5-12-47-2_node_124;
	current_limit 5000.0;
	status CLOSED;
}

object fuse:936 {
	name R5-12-47-2_fuse_8;
	phases "AN";
	from R5-12-47-2_node_265;
	to R5-12-47-2_node_120;
	current_limit 5000.0;
	status CLOSED;
}

object fuse:942 {
	name R5-12-47-2_fuse_9;
	phases "AN";
	from R5-12-47-2_node_283;
	to R5-12-47-2_node_143;
	current_limit 5000.0;
	status CLOSED;
}

object fuse:946 {
	name R5-12-47-2_fuse_10;
	phases "ABCN";
	from R5-12-47-2_node_275;
	to R5-12-47-2_node_132;
	current_limit 5000.0;
	status CLOSED;
}

object fuse:960 {
	name R5-12-47-2_fuse_11;
	phases "ABCN";
	from R5-12-47-2_node_276;
	to R5-12-47-2_node_119;
	current_limit 5000.0;
	status CLOSED;
}

object fuse:963 {
	name R5-12-47-2_fuse_12;
	phases "ABN";
	from R5-12-47-2_node_284;
	to R5-12-47-2_node_141;
	current_limit 5000.0;
	status CLOSED;
}

object fuse:966 {
	name R5-12-47-2_fuse_13;
	phases "AN";
	from R5-12-47-2_node_291;
	to R5-12-47-2_node_136;
	current_limit 5000.0;
	status CLOSED;
}

object fuse:967 {
	name R5-12-47-2_fuse_14;
	phases "ABCN";
	from R5-12-47-2_node_302;
	to R5-12-47-2_node_131;
	current_limit 5000.0;
	status CLOSED;
}

object fuse:971 {
	name R5-12-47-2_fuse_15;
	phases "ABCN";
	from R5-12-47-2_node_285;
	to R5-12-47-2_node_146;
	current_limit 5000.0;
	status CLOSED;
}

object fuse:973 {
	name R5-12-47-2_fuse_16;
	phases "ABCN";
	from R5-12-47-2_node_306;
	to R5-12-47-2_node_118;
	current_limit 5000.0;
	status CLOSED;
}

object fuse:976 {
	name R5-12-47-2_fuse_17;
	phases "ABCN";
	from R5-12-47-2_node_301;
	to R5-12-47-2_node_126;
	current_limit 5000.0;
	status CLOSED;
}

object fuse:985 {
	name R5-12-47-2_fuse_18;
	phases "ABCN";
	from R5-12-47-2_node_308;
	to R5-12-47-2_node_128;
	current_limit 5000.0;
	status CLOSED;
}

object fuse:986 {
	name R5-12-47-2_fuse_19;
	phases "ACN";
	from R5-12-47-2_node_308;
	to R5-12-47-2_node_121;
	current_limit 5000.0;
	status CLOSED;
}

object fuse:1001 {
	name R5-12-47-2_fuse_20;
	phases "ABCN";
	from R5-12-47-2_node_280;
	to R5-12-47-2_node_140;
	current_limit 5000.0;
	status CLOSED;
}

object fuse:1002 {
	name R5-12-47-2_fuse_21;
	phases "ABCN";
	from R5-12-47-2_node_270;
	to R5-12-47-2_node_127;
	current_limit 5000.0;
	status CLOSED;
}

object fuse:1008 {
	name R5-12-47-2_fuse_22;
	phases "ABCN";
	from R5-12-47-2_node_263;
	to R5-12-47-2_node_129;
	current_limit 5000.0;
	status CLOSED;
}

object fuse:1009 {
	name R5-12-47-2_fuse_23;
	phases "ABCN";
	from R5-12-47-2_node_269;
	to R5-12-47-2_node_113;
	current_limit 5000.0;
	status CLOSED;
}

object fuse:1015 {
	name R5-12-47-2_fuse_24;
	phases "ABCN";
	from R5-12-47-2_node_284;
	to R5-12-47-2_node_145;
	current_limit 5000.0;
	status CLOSED;
}

object fuse:1020 {
	name R5-12-47-2_fuse_25;
	phases "CN";
	from R5-12-47-2_node_256;
	to R5-12-47-2_node_123;
	current_limit 5000.0;
	status CLOSED;
}

object fuse:1023 {
	name R5-12-47-2_fuse_26;
	phases "BN";
	from R5-12-47-2_node_269;
	to R5-12-47-2_node_134;
	current_limit 5000.0;
	status CLOSED;
}

object fuse:1026 {
	name R5-12-47-2_fuse_27;
	phases "ABCN";
	from R5-12-47-2_node_286;
	to R5-12-47-2_node_138;
	current_limit 5000.0;
	status CLOSED;
}

object fuse:1049 {
	name R5-12-47-2_fuse_28;
	phases "ABCN";
	from R5-12-47-2_node_307;
	to R5-12-47-2_node_137;
	current_limit 5000.0;
	status CLOSED;
}

object fuse:1050 {
	name R5-12-47-2_fuse_29;
	phases "ABCN";
	from R5-12-47-2_node_266;
	to R5-12-47-2_node_122;
	current_limit 5000.0;
	status CLOSED;
}

object fuse:1057 {
	name R5-12-47-2_fuse_30;
	phases "ABCN";
	from R5-12-47-2_node_286;
	to R5-12-47-2_node_142;
	current_limit 5000.0;
	status CLOSED;
}

object fuse:1100 {
	name R5-12-47-2_fuse_31;
	phases "ABCN";
	from R5-12-47-2_node_256;
	to R5-12-47-2_node_117;
	current_limit 5000.0;
	status CLOSED;
}

object fuse:1106 {
	name R5-12-47-2_fuse_32;
	phases "CN";
	from R5-12-47-2_node_310;
	to R5-12-47-2_node_139;
	current_limit 5000.0;
	status CLOSED;
}

object fuse:1107 {
	name R5-12-47-2_fuse_33;
	phases "CN";
	from R5-12-47-2_node_287;
	to R5-12-47-2_node_135;
	current_limit 5000.0;
	status CLOSED;
}

object fuse:1163 {
	name R5-12-47-2_fuse_34;
	phases "ABCN";
	from R5-12-47-2_node_166;
	to R5-12-47-2_node_130;
	current_limit 5000.0;
	status CLOSED;
}

object fuse:1177 {
	name R5-12-47-2_fuse_35;
	phases "ABCN";
	from R5-12-47-2_node_237;
	to R5-12-47-2_node_116;
	current_limit 5000.0;
	status OPEN;
}


object line_configuration:855 {
	conductor_A overhead_line_conductor:40;
	conductor_B overhead_line_conductor:40;
	conductor_C overhead_line_conductor:40;
	conductor_N overhead_line_conductor:40;
	spacing line_spacing:854;
}

object line_configuration:857 {
	conductor_C overhead_line_conductor:40;
	conductor_N overhead_line_conductor:40;
	spacing line_spacing:856;
}

object line_configuration:859 {
	conductor_A overhead_line_conductor:40;
	conductor_N overhead_line_conductor:40;
	spacing line_spacing:858;
}

object line_configuration:861 {
	conductor_A overhead_line_conductor:18;
	conductor_B overhead_line_conductor:18;
	conductor_C overhead_line_conductor:18;
	conductor_N overhead_line_conductor:18;
	spacing line_spacing:860;
}

object line_configuration:863 {
	conductor_A overhead_line_conductor:15;
	conductor_B overhead_line_conductor:15;
	conductor_N overhead_line_conductor:15;
	spacing line_spacing:862;
}

object line_configuration:864 {
	conductor_A overhead_line_conductor:36;
	conductor_B overhead_line_conductor:36;
	conductor_C overhead_line_conductor:36;
	conductor_N overhead_line_conductor:36;
	spacing line_spacing:860;
}

object line_configuration:866 {
	conductor_A overhead_line_conductor:18;
	conductor_N overhead_line_conductor:18;
	spacing line_spacing:865;
}

object line_configuration:867 {
	conductor_A overhead_line_conductor:15;
	conductor_B overhead_line_conductor:15;
	conductor_C overhead_line_conductor:15;
	conductor_N overhead_line_conductor:15;
	spacing line_spacing:860;
}

object line_configuration:868 {
	conductor_A overhead_line_conductor:10;
	conductor_B overhead_line_conductor:10;
	conductor_C overhead_line_conductor:10;
	conductor_N overhead_line_conductor:10;
	spacing line_spacing:860;
}

object line_configuration:870 {
	conductor_A overhead_line_conductor:5;
	conductor_C overhead_line_conductor:5;
	conductor_N overhead_line_conductor:5;
	spacing line_spacing:869;
}

object line_configuration:871 {
	conductor_A overhead_line_conductor:10;
	conductor_B overhead_line_conductor:10;
	conductor_C overhead_line_conductor:10;
	conductor_N overhead_line_conductor:10;
	spacing line_spacing:860;
}

object line_configuration:872 {
	conductor_A overhead_line_conductor:10;
	conductor_C overhead_line_conductor:10;
	conductor_N overhead_line_conductor:10;
	spacing line_spacing:869;
}

object line_configuration:874 {
	conductor_C overhead_line_conductor:18;
	conductor_N overhead_line_conductor:18;
	spacing line_spacing:873;
}

object line_configuration:875 {
	conductor_A overhead_line_conductor:21;
	conductor_B overhead_line_conductor:21;
	conductor_C overhead_line_conductor:21;
	conductor_N overhead_line_conductor:21;
	spacing line_spacing:860;
}

object line_configuration:877 {
	conductor_B overhead_line_conductor:18;
	conductor_N overhead_line_conductor:18;
	spacing line_spacing:876;
}

object line_configuration:878 {
	conductor_A overhead_line_conductor:10;
	conductor_C overhead_line_conductor:10;
	conductor_N overhead_line_conductor:10;
	spacing line_spacing:869;
}

object line_configuration:879 {
	conductor_B overhead_line_conductor:10;
	conductor_N overhead_line_conductor:10;
	spacing line_spacing:876;
}

object line_configuration:880 {
	conductor_C overhead_line_conductor:5;
	conductor_N overhead_line_conductor:5;
	spacing line_spacing:873;
}

object line_configuration:881 {
	conductor_A overhead_line_conductor:18;
	conductor_B overhead_line_conductor:18;
	conductor_N overhead_line_conductor:18;
	spacing line_spacing:862;
}

object line_configuration:882 {
	conductor_A overhead_line_conductor:15;
	conductor_C overhead_line_conductor:15;
	conductor_N overhead_line_conductor:15;
	spacing line_spacing:869;
}

object line_configuration:883 {
	conductor_B overhead_line_conductor:15;
	conductor_N overhead_line_conductor:15;
	spacing line_spacing:876;
}

object line_configuration:884 {
	conductor_C overhead_line_conductor:15;
	conductor_N overhead_line_conductor:15;
	spacing line_spacing:873;
}

object line_configuration:885 {
	conductor_A overhead_line_conductor:15;
	conductor_B overhead_line_conductor:15;
	conductor_C overhead_line_conductor:15;
	conductor_N overhead_line_conductor:15;
	spacing line_spacing:860;
}

object line_configuration:886 {
	conductor_A underground_line_conductor:42;
	conductor_B underground_line_conductor:42;
	conductor_C underground_line_conductor:42;
	conductor_N underground_line_conductor:42;
	spacing line_spacing:860;
}

object line_configuration:887 {
	conductor_A underground_line_conductor:44;
	conductor_B underground_line_conductor:44;
	conductor_C underground_line_conductor:44;
	conductor_N underground_line_conductor:44;
	spacing line_spacing:860;
}

object line_configuration:888 {
	conductor_A underground_line_conductor:42;
	conductor_N underground_line_conductor:42;
	spacing line_spacing:865;
}

object line_configuration:889 {
	conductor_A underground_line_conductor:45;
	conductor_B underground_line_conductor:45;
	conductor_C underground_line_conductor:45;
	conductor_N underground_line_conductor:45;
	spacing line_spacing:860;
}

object line_configuration:890 {
	conductor_A underground_line_conductor:46;
	conductor_B underground_line_conductor:46;
	conductor_C underground_line_conductor:46;
	conductor_N underground_line_conductor:46;
	spacing line_spacing:860;
}

object line_configuration:891 {
	conductor_C underground_line_conductor:42;
	conductor_N underground_line_conductor:42;
	spacing line_spacing:873;
}


object line_spacing:854 {
	distance_AB 48.0 in;
	distance_BC 48.0 in;
	distance_AC 48.0 in;
	distance_AN 36.0 in;
	distance_BN 36.0 in;
	distance_CN 36.0 in;
}

object line_spacing:856 {
	distance_CN 36.0 in;
}

object line_spacing:858 {
	distance_AN 36.0 in;
}

object line_spacing:860 {
	distance_AB 36.0 in;
	distance_BC 36.0 in;
	distance_AC 36.0 in;
	distance_AN 48.0 in;
	distance_BN 48.0 in;
	distance_CN 48.0 in;
}

object line_spacing:862 {
	distance_AB 36.0 in;
	distance_AN 48.0 in;
	distance_BN 48.0 in;
}

object line_spacing:865 {
	distance_AN 48.0 in;
}

object line_spacing:869 {
	distance_AC 36.0 in;
	distance_AN 48.0 in;
	distance_CN 48.0 in;
}

object line_spacing:873 {
	distance_CN 48.0 in;
}

object line_spacing:876 {
	distance_BN 48.0 in;
}


object load {
	name R5-12-47-2_load_1;
	parent R5-12-47-2_meter_1;
	phases "ABCN";
	nominal_voltage 7199.558;
	voltage_A 7199.558+0.0j;
	voltage_B -3599.779-6235.000j;
	voltage_C -3599.779+6235.000j;
	constant_power_A 25651.907+13683.301j;
	constant_power_B 24631.899+13026.742j;
	constant_power_C 25222.398+13340.455j;
	load_class "C";
}

object load {
	name R5-12-47-2_load_2;
	parent R5-12-47-2_meter_2;
	phases "ABCN";
	nominal_voltage 7199.558;
	voltage_A 7199.558+0.0j;
	voltage_B -3599.779-6235.000j;
	voltage_C -3599.779+6235.000j;
	constant_power_A 12825.953+6841.650j;
	constant_power_B 12315.949+6513.371j;
	constant_power_C 12611.199+6670.228j;
	load_class "C";
}

object load {
	name R5-12-47-2_load_3;
	parent R5-12-47-2_meter_3;
	phases "ABCN";
	nominal_voltage 7199.558;
	voltage_A 7199.558+0.0j;
	voltage_B -3599.779-6235.000j;
	voltage_C -3599.779+6235.000j;
	constant_power_A 12825.953+6841.650j;
	constant_power_B 12315.949+6513.371j;
	constant_power_C 12611.199+6670.228j;
	load_class "C";
}

object load {
	name R5-12-47-2_load_4;
	parent R5-12-47-2_meter_4;
	phases "ABCN";
	nominal_voltage 7199.558;
	voltage_A 7199.558+0.0j;
	voltage_B -3599.779-6235.000j;
	voltage_C -3599.779+6235.000j;
	constant_power_A 12825.953+6841.650j;
	constant_power_B 12315.949+6513.371j;
	constant_power_C 12611.199+6670.228j;
	load_class "C";
}

object load {
	name R5-12-47-2_load_5;
	parent R5-12-47-2_meter_5;
	phases "ABCN";
	nominal_voltage 7199.558;
	voltage_A 7199.558+0.0j;
	voltage_B -3599.779-6235.000j;
	voltage_C -3599.779+6235.000j;
	constant_power_A 25651.907+13683.301j;
	constant_power_B 24631.899+13026.742j;
	constant_power_C 25222.398+13340.455j;
	load_class "C";
}

object load {
	name R5-12-47-2_load_6;
	parent R5-12-47-2_meter_6;
	phases "ABCN";
	nominal_voltage 7199.558;
	voltage_A 7199.558+0.0j;
	voltage_B -3599.779-6235.000j;
	voltage_C -3599.779+6235.000j;
	constant_power_A 42753.178+22805.501j;
	constant_power_B 41053.165+21711.236j;
	constant_power_C 42037.330+22234.092j;
	load_class "C";
}

object load {
	name R5-12-47-2_load_7;
	parent R5-12-47-2_meter_7;
	phases "ABCN";
	nominal_voltage 7199.558;
	voltage_A 7199.558+0.0j;
	voltage_B -3599.779-6235.000j;
	voltage_C -3599.779+6235.000j;
	constant_power_A 42753.178+22805.501j;
	constant_power_B 41053.165+21711.236j;
	constant_power_C 42037.330+22234.092j;
	load_class "C";
}

object load {
	name R5-12-47-2_load_8;
	parent R5-12-47-2_meter_8;
	phases "ABCN";
	nominal_voltage 7199.558;
	voltage_A 7199.558+0.0j;
	voltage_B -3599.779-6235.000j;
	voltage_C -3599.779+6235.000j;
	constant_power_A 128259.534+68416.504j;
	constant_power_B 123159.494+65133.709j;
	constant_power_C 126111.990+66702.275j;
	load_class "C";
}

object load {
	name R5-12-47-2_load_9;
	parent R5-12-47-2_meter_9;
	phases "ABCN";
	nominal_voltage 7199.558;
	voltage_A 7199.558+0.0j;
	voltage_B -3599.779-6235.000j;
	voltage_C -3599.779+6235.000j;
	constant_power_A 12825.953+6841.650j;
	constant_power_B 12315.949+6513.371j;
	constant_power_C 12611.199+6670.228j;
	load_class "C";
}

object load {
	name R5-12-47-2_load_10;
	parent R5-12-47-2_meter_10;
	phases "ABCN";
	nominal_voltage 7199.558;
	voltage_A 7199.558+0.0j;
	voltage_B -3599.779-6235.000j;
	voltage_C -3599.779+6235.000j;
	constant_power_A 12825.953+6841.650j;
	constant_power_B 12315.949+6513.371j;
	constant_power_C 12611.199+6670.228j;
	load_class "C";
}

object load {
	name R5-12-47-2_load_11;
	parent R5-12-47-2_meter_11;
	phases "ABCN";
	nominal_voltage 7199.558;
	voltage_A 7199.558+0.0j;
	voltage_B -3599.779-6235.000j;
	voltage_C -3599.779+6235.000j;
	constant_power_A 12825.953+6841.650j;
	constant_power_B 12315.949+6513.371j;
	constant_power_C 12611.199+6670.228j;
	load_class "C";
}

object load {
	name R5-12-47-2_load_12;
	parent R5-12-47-2_meter_12;
	phases "ABCN";
	nominal_voltage 7199.558;
	voltage_A 7199.558+0.0j;
	voltage_B -3599.779-6235.000j;
	voltage_C -3599.779+6235.000j;
	constant_power_A 85506.356+45611.003j;
	constant_power_B 82106.329+43422.472j;
	constant_power_C 84074.660+44468.183j;
	load_class "C";
}

object load {
	name R5-12-47-2_load_13;
	parent R5-12-47-2_meter_13;
	phases "ABCN";
	nominal_voltage 7199.558;
	voltage_A 7199.558+0.0j;
	voltage_B -3599.779-6235.000j;
	voltage_C -3599.779+6235.000j;
	constant_power_A 25651.907+13683.301j;
	constant_power_B 24631.899+13026.742j;
	constant_power_C 25222.398+13340.455j;
	load_class "C";
}

object load {
	name R5-12-47-2_load_14;
	parent R5-12-47-2_meter_14;
	phases "ABCN";
	nominal_voltage 7199.558;
	voltage_A 7199.558+0.0j;
	voltage_B -3599.779-6235.000j;
	voltage_C -3599.779+6235.000j;
	constant_power_A 213765.889+114027.507j;
	constant_power_B 205265.823+108556.181j;
	constant_power_C 210186.649+111170.458j;
	load_class "C";
}

object load {
	name R5-12-47-2_load_15;
	parent R5-12-47-2_meter_15;
	phases "ABCN";
	nominal_voltage 7199.558;
	voltage_A 7199.558+0.0j;
	voltage_B -3599.779-6235.000j;
	voltage_C -3599.779+6235.000j;
	constant_power_A 213765.889+114027.507j;
	constant_power_B 205265.823+108556.181j;
	constant_power_C 210186.649+111170.458j;
	load_class "C";
}

object load {
	name R5-12-47-2_load_16;
	parent R5-12-47-2_meter_16;
	phases "ABCN";
	nominal_voltage 7199.558;
	voltage_A 7199.558+0.0j;
	voltage_B -3599.779-6235.000j;
	voltage_C -3599.779+6235.000j;
	constant_power_A 12825.953+6841.650j;
	constant_power_B 12315.949+6513.371j;
	constant_power_C 12611.199+6670.228j;
	load_class "C";
}

object load {
	name R5-12-47-2_load_17;
	parent R5-12-47-2_meter_17;
	phases "ABCN";
	nominal_voltage 7199.558;
	voltage_A 7199.558+0.0j;
	voltage_B -3599.779-6235.000j;
	voltage_C -3599.779+6235.000j;
	constant_power_A 6412.977+3420.825j;
	constant_power_B 6157.975+3256.685j;
	constant_power_C 6305.599+3335.114j;
	load_class "C";
}

object load {
	name R5-12-47-2_load_18;
	parent R5-12-47-2_meter_18;
	phases "ABCN";
	nominal_voltage 7199.558;
	voltage_A 7199.558+0.0j;
	voltage_B -3599.779-6235.000j;
	voltage_C -3599.779+6235.000j;
	constant_power_A 6412.977+3420.825j;
	constant_power_B 6157.975+3256.685j;
	constant_power_C 6305.599+3335.114j;
	load_class "C";
}

object load {
	name R5-12-47-2_load_19;
	parent R5-12-47-2_meter_19;
	phases "ABCN";
	nominal_voltage 7199.558;
	voltage_A 7199.558+0.0j;
	voltage_B -3599.779-6235.000j;
	voltage_C -3599.779+6235.000j;
	constant_power_A 5985.445+3192.770j;
	constant_power_B 5747.443+3039.573j;
	constant_power_C 5885.226+3112.773j;
	load_class "C";
}

object load {
	name R5-12-47-2_load_20;
	parent R5-12-47-2_meter_20;
	phases "ABCN";
	nominal_voltage 7199.558;
	voltage_A 7199.558+0.0j;
	voltage_B -3599.779-6235.000j;
	voltage_C -3599.779+6235.000j;
	constant_power_A 19238.930+10262.476j;
	constant_power_B 18473.924+9770.056j;
	constant_power_C 8000.000+4210.000j;
	load_class "C";
}

object load {
	name R5-12-47-2_load_21;
	parent R5-12-47-2_meter_21;
	phases "ABCN";
	nominal_voltage 7199.558;
	voltage_A 7199.558+0.0j;
	voltage_B -3599.779-6235.000j;
	voltage_C -3599.779+6235.000j;
	constant_power_A 6412.977+3420.825j;
	constant_power_B 6157.975+3256.685j;
	constant_power_C 6305.599+3335.114j;
	load_class "C";
}

object load {
	name R5-12-47-2_load_22;
	parent R5-12-47-2_meter_22;
	phases "ABCN";
	nominal_voltage 7199.558;
	voltage_A 7199.558+0.0j;
	voltage_B -3599.779-6235.000j;
	voltage_C -3599.779+6235.000j;
	constant_power_A 25651.907+13683.301j;
	constant_power_B 24631.899+13026.742j;
	constant_power_C 25222.398+13340.455j;
	load_class "C";
}

object load {
	name R5-12-47-2_load_23;
	parent R5-12-47-2_meter_23;
	phases "ABN";
	nominal_voltage 7199.558;
	voltage_A 7199.558+0.0j;
	voltage_B -3599.779-6235.000j;
	constant_power_A 2565.191+1368.330j;
	constant_power_B 2463.190+1302.674j;
	load_class "C";
}

object load {
	name R5-12-47-2_load_24;
	parent R5-12-47-2_meter_24;
	phases "ABCN";
	nominal_voltage 7199.558;
	voltage_A 7199.558+0.0j;
	voltage_B -3599.779-6235.000j;
	voltage_C -3599.779+6235.000j;
	constant_power_A 6412.977+3420.825j;
	constant_power_B 6157.975+3256.685j;
	constant_power_C 6305.599+3335.114j;
	load_class "C";
}

object load {
	name R5-12-47-2_load_25;
	parent R5-12-47-2_meter_25;
	phases "ABCN";
	nominal_voltage 7199.558;
	voltage_A 7199.558+0.0j;
	voltage_B -3599.779-6235.000j;
	voltage_C -3599.779+6235.000j;
	constant_power_A 12825.953+6841.650j;
	constant_power_B 12315.949+6513.371j;
	constant_power_C 12611.199+6670.228j;
	load_class "C";
}

object load {
	name R5-12-47-2_load_26;
	parent R5-12-47-2_meter_26;
	phases "ABCN";
	nominal_voltage 7199.558;
	voltage_A 7199.558+0.0j;
	voltage_B -3599.779-6235.000j;
	voltage_C -3599.779+6235.000j;
	constant_power_A 8550.636+4561.100j;
	constant_power_B 8210.633+4342.247j;
	constant_power_C 8407.466+4446.818j;
	load_class "C";
}

object load {
	name R5-12-47-2_load_27;
	parent R5-12-47-2_meter_27;
	phases "ABN";
	nominal_voltage 7199.558;
	voltage_A 7199.558+0.0j;
	voltage_B -3599.779-6235.000j;
	constant_power_A 9619.465+5131.238j;
	constant_power_B 9236.962+4885.028j;
	load_class "C";
}

object load {
	name R5-12-47-2_load_28;
	parent R5-12-47-2_meter_28;
	phases "ABCN";
	nominal_voltage 7199.558;
	voltage_A 7199.558+0.0j;
	voltage_B -3599.779-6235.000j;
	voltage_C -3599.779+6235.000j;
	constant_power_A 12825.953+6841.650j;
	constant_power_B 12315.949+6513.371j;
	constant_power_C 12611.199+6670.228j;
	load_class "C";
}


object meter:108 {
	name R5-12-47-2_meter_1;
	phases "ABCN";
	nominal_voltage 7199.558;
	voltage_A 7199.558+0.0j;
	voltage_B -3599.779-6235.000j;
	voltage_C -3599.779+6235.000j;
}

object meter:110 {
	name R5-12-47-2_meter_2;
	phases "ABCN";
	nominal_voltage 7199.558;
	voltage_A 7199.558+0.0j;
	voltage_B -3599.779-6235.000j;
	voltage_C -3599.779+6235.000j;
}

object meter:112 {
	name R5-12-47-2_meter_3;
	phases "ABCN";
	nominal_voltage 7199.558;
	voltage_A 7199.558+0.0j;
	voltage_B -3599.779-6235.000j;
	voltage_C -3599.779+6235.000j;
}

object meter:114 {
	name R5-12-47-2_meter_4;
	phases "ABCN";
	nominal_voltage 7199.558;
	voltage_A 7199.558+0.0j;
	voltage_B -3599.779-6235.000j;
	voltage_C -3599.779+6235.000j;
}

object meter:116 {
	name R5-12-47-2_meter_5;
	phases "ABCN";
	nominal_voltage 7199.558;
	voltage_A 7199.558+0.0j;
	voltage_B -3599.779-6235.000j;
	voltage_C -3599.779+6235.000j;
}

object meter:127 {
	name R5-12-47-2_meter_6;
	phases "ABCN";
	nominal_voltage 7199.558;
	voltage_A 7199.558+0.0j;
	voltage_B -3599.779-6235.000j;
	voltage_C -3599.779+6235.000j;
}

object meter:129 {
	name R5-12-47-2_meter_7;
	phases "ABCN";
	nominal_voltage 7199.558;
	voltage_A 7199.558+0.0j;
	voltage_B -3599.779-6235.000j;
	voltage_C -3599.779+6235.000j;
}

object meter:131 {
	name R5-12-47-2_meter_8;
	phases "ABCN";
	nominal_voltage 7199.558;
	voltage_A 7199.558+0.0j;
	voltage_B -3599.779-6235.000j;
	voltage_C -3599.779+6235.000j;
}

object meter:133 {
	name R5-12-47-2_meter_9;
	phases "ABCN";
	nominal_voltage 7199.558;
	voltage_A 7199.558+0.0j;
	voltage_B -3599.779-6235.000j;
	voltage_C -3599.779+6235.000j;
}

object meter:135 {
	name R5-12-47-2_meter_10;
	phases "ABCN";
	nominal_voltage 7199.558;
	voltage_A 7199.558+0.0j;
	voltage_B -3599.779-6235.000j;
	voltage_C -3599.779+6235.000j;
}

object meter:137 {
	name R5-12-47-2_meter_11;
	phases "ABCN";
	nominal_voltage 7199.558;
	voltage_A 7199.558+0.0j;
	voltage_B -3599.779-6235.000j;
	voltage_C -3599.779+6235.000j;
}

object meter:139 {
	name R5-12-47-2_meter_12;
	phases "ABCN";
	nominal_voltage 7199.558;
	voltage_A 7199.558+0.0j;
	voltage_B -3599.779-6235.000j;
	voltage_C -3599.779+6235.000j;
}

object meter:141 {
	name R5-12-47-2_meter_13;
	phases "ABCN";
	nominal_voltage 7199.558;
	voltage_A 7199.558+0.0j;
	voltage_B -3599.779-6235.000j;
	voltage_C -3599.779+6235.000j;
}

object meter:146 {
	name R5-12-47-2_meter_14;
	phases "ABCN";
	nominal_voltage 7199.558;
	voltage_A 7199.558+0.0j;
	voltage_B -3599.779-6235.000j;
	voltage_C -3599.779+6235.000j;
}

object meter:148 {
	name R5-12-47-2_meter_15;
	phases "ABCN";
	nominal_voltage 7199.558;
	voltage_A 7199.558+0.0j;
	voltage_B -3599.779-6235.000j;
	voltage_C -3599.779+6235.000j;
}

object meter:150 {
	name R5-12-47-2_meter_16;
	phases "ABCN";
	nominal_voltage 7199.558;
	voltage_A 7199.558+0.0j;
	voltage_B -3599.779-6235.000j;
	voltage_C -3599.779+6235.000j;
}

object meter:152 {
	name R5-12-47-2_meter_17;
	phases "ABCN";
	nominal_voltage 7199.558;
	voltage_A 7199.558+0.0j;
	voltage_B -3599.779-6235.000j;
	voltage_C -3599.779+6235.000j;
}

object meter:160 {
	name R5-12-47-2_meter_18;
	phases "ABCN";
	nominal_voltage 7199.558;
	voltage_A 7199.558+0.0j;
	voltage_B -3599.779-6235.000j;
	voltage_C -3599.779+6235.000j;
}

object meter:234 {
	name R5-12-47-2_meter_19;
	phases "ABCN";
	nominal_voltage 7199.558;
	voltage_A 7199.558+0.0j;
	voltage_B -3599.779-6235.000j;
	voltage_C -3599.779+6235.000j;
}

object meter:245 {
	name R5-12-47-2_meter_20;
	phases "ABCN";
	nominal_voltage 7199.558;
	voltage_A 7199.558+0.0j;
	voltage_B -3599.779-6235.000j;
	voltage_C -3599.779+6235.000j;
}

object meter:268 {
	name R5-12-47-2_meter_21;
	phases "ABCN";
	nominal_voltage 7199.558;
	voltage_A 7199.558+0.0j;
	voltage_B -3599.779-6235.000j;
	voltage_C -3599.779+6235.000j;
}

object meter:276 {
	name R5-12-47-2_meter_22;
	phases "ABCN";
	nominal_voltage 7199.558;
	voltage_A 7199.558+0.0j;
	voltage_B -3599.779-6235.000j;
	voltage_C -3599.779+6235.000j;
}

object meter:281 {
	name R5-12-47-2_meter_23;
	phases "ABN";
	nominal_voltage 7199.558;
	voltage_A 7199.558+0.0j;
	voltage_B -3599.779-6235.000j;
}

object meter:310 {
	name R5-12-47-2_meter_24;
	phases "ABCN";
	nominal_voltage 7199.558;
	voltage_A 7199.558+0.0j;
	voltage_B -3599.779-6235.000j;
	voltage_C -3599.779+6235.000j;
}

object meter:345 {
	name R5-12-47-2_meter_25;
	phases "ABCN";
	nominal_voltage 7199.558;
	voltage_A 7199.558+0.0j;
	voltage_B -3599.779-6235.000j;
	voltage_C -3599.779+6235.000j;
}

object meter:353 {
	name R5-12-47-2_meter_26;
	phases "ABCN";
	nominal_voltage 7199.558;
	voltage_A 7199.558+0.0j;
	voltage_B -3599.779-6235.000j;
	voltage_C -3599.779+6235.000j;
}

object meter:400 {
	name R5-12-47-2_meter_27;
	phases "ABN";
	nominal_voltage 7199.558;
	voltage_A 7199.558+0.0j;
	voltage_B -3599.779-6235.000j;
}

object meter:408 {
	name R5-12-47-2_meter_28;
	phases "ABCN";
	nominal_voltage 7199.558;
	voltage_A 7199.558+0.0j;
	voltage_B -3599.779-6235.000j;
	voltage_C -3599.779+6235.000j;
}

// Meter at feeder
object meter:853 {
	name R5-12-47-2_meter_29;
	phases "ABCN";
	nominal_voltage 7199.558;
	voltage_A 7199.558+0.0j;
	voltage_B -3599.779-6235.000j;
	voltage_C -3599.779+6235.000j;
}


object node:430 {
	name R5-12-47-2_node_1;
	phases "ABN";
	nominal_voltage 7199.558;
	voltage_A 7199.558+0.0j;
	voltage_B -3599.779-6235.000j;
}

object node:431 {
	name R5-12-47-2_node_2;
	phases "ABCN";
	nominal_voltage 7199.558;
	voltage_A 7199.558+0.0j;
	voltage_B -3599.779-6235.000j;
	voltage_C -3599.779+6235.000j;
}

object node:434 {
	name R5-12-47-2_node_3;
	phases "ABCN";
	nominal_voltage 7199.558;
	voltage_A 7199.558+0.0j;
	voltage_B -3599.779-6235.000j;
	voltage_C -3599.779+6235.000j;
}

object node:435 {
	name R5-12-47-2_node_4;
	phases "ABCN";
	nominal_voltage 7199.558;
	voltage_A 7199.558+0.0j;
	voltage_B -3599.779-6235.000j;
	voltage_C -3599.779+6235.000j;
}

object node:437 {
	name R5-12-47-2_node_5;
	phases "ABCN";
	nominal_voltage 7199.558;
	voltage_A 7199.558+0.0j;
	voltage_B -3599.779-6235.000j;
	voltage_C -3599.779+6235.000j;
}

object node:442 {
	name R5-12-47-2_node_6;
	phases "ABCN";
	nominal_voltage 7199.558;
	voltage_A 7199.558+0.0j;
	voltage_B -3599.779-6235.000j;
	voltage_C -3599.779+6235.000j;
}

object node:443 {
	name R5-12-47-2_node_7;
	phases "ABN";
	nominal_voltage 7199.558;
	voltage_A 7199.558+0.0j;
	voltage_B -3599.779-6235.000j;
}

object node:444 {
	name R5-12-47-2_node_8;
	phases "ABCN";
	nominal_voltage 7199.558;
	voltage_A 7199.558+0.0j;
	voltage_B -3599.779-6235.000j;
	voltage_C -3599.779+6235.000j;
}

object node:445 {
	name R5-12-47-2_node_9;
	phases "ABCN";
	nominal_voltage 7199.558;
	voltage_A 7199.558+0.0j;
	voltage_B -3599.779-6235.000j;
	voltage_C -3599.779+6235.000j;
}

object node:448 {
	name R5-12-47-2_node_10;
	phases "ACN";
	nominal_voltage 7199.558;
	voltage_A 7199.558+0.0j;
	voltage_C -3599.779+6235.000j;
}

object node:451 {
	name R5-12-47-2_node_11;
	phases "BN";
	nominal_voltage 7199.558;
	voltage_B -3599.779-6235.000j;
}

object node:450 {
	name R5-12-47-2_node_12;
	phases "AN";
	nominal_voltage 7199.558;
	voltage_A 7199.558+0.0j;
}

object node:454 {
	name R5-12-47-2_node_13;
	phases "ABCN";
	nominal_voltage 7199.558;
	voltage_A 7199.558+0.0j;
	voltage_B -3599.779-6235.000j;
	voltage_C -3599.779+6235.000j;
}

object node:458 {
	name R5-12-47-2_node_14;
	phases "ABCN";
	nominal_voltage 7199.558;