// $Id: R5-12.47-5.glm 1132 2008-11-18 22:36:10Z dchassin $ 
//*********************************************

clock { 
	 timezone EST+5EDT;
	 timestamp '2000-01-01 0:00:00';
}

//*********************************************
// modules
module powerflow;


object fuse:2282 {
	name R5-12-47-5_fuse_1;
	phases "ABCN";
	from node:1105;
	to node:1251;
	current_limit 5000.0;
	status CLOSED;
}

object fuse:2287 {
	name R5-12-47-5_fuse_2;
	phases "CN";
	from node:952;
	to node:1510;
	current_limit 5000.0;
	status CLOSED;
}

object fuse:2344 {
	name R5-12-47-5_fuse_3;
	phases "CN";
	from node:985;
	to node:1716;
	current_limit 5000.0;
	status CLOSED;
}

object fuse:2360 {
	name R5-12-47-5_fuse_4;
	phases "AN";
	from node:2080;
	to node:1488;
	current_limit 5000.0;
	status CLOSED;
}

object fuse:2368 {
	name R5-12-47-5_fuse_5;
	phases "AN";
	from node:1705;
	to node:971;
	current_limit 5000.0;
	status CLOSED;
}

object fuse:2374 {
	name R5-12-47-5_fuse_6;
	phases "AN";
	from node:979;
	to node:1885;
	current_limit 5000.0;
	status CLOSED;
}

object fuse:2397 {
	name R5-12-47-5_fuse_7;
	phases "AN";
	from node:1894;
	to node:936;
	current_limit 5000.0;
	status CLOSED;
}

object fuse:2399 {
	name R5-12-47-5_fuse_8;
	phases "AN";
	from node:1877;
	to node:2075;
	current_limit 5000.0;
	status CLOSED;
}

object fuse:2405 {
	name R5-12-47-5_fuse_9;
	phases "AN";
	from node:1353;
	to node:2106;
	current_limit 5000.0;
	status CLOSED;
}

object fuse:2407 {
	name R5-12-47-5_fuse_10;
	phases "AN";
	from node:1353;
	to node:2121;
	current_limit 5000.0;
	status CLOSED;
}

object fuse:2419 {
	name R5-12-47-5_fuse_11;
	phases "CN";
	from node:1421;
	to node:1668;
	current_limit 5000.0;
	status CLOSED;
}

object fuse:2420 {
	name R5-12-47-5_fuse_12;
	phases "ABCN";
	from node:1246;
	to node:1981;
	current_limit 5000.0;
	status CLOSED;
}

object fuse:2421 {
	name R5-12-47-5_fuse_13;
	phases "AN";
	from node:1852;
	to node:898;
	current_limit 5000.0;
	status CLOSED;
}

object fuse:2426 {
	name R5-12-47-5_fuse_14;
	phases "AN";
	from node:1559;
	to node:1198;
	current_limit 5000.0;
	status CLOSED;
}

object fuse:2429 {
	name R5-12-47-5_fuse_15;
	phases "BN";
	from node:2115;
	to node:1370;
	current_limit 5000.0;
	status CLOSED;
}

object fuse:2430 {
	name R5-12-47-5_fuse_16;
	phases "BN";
	from node:981;
	to node:2131;
	current_limit 5000.0;
	status CLOSED;
}

object fuse:2431 {
	name R5-12-47-5_fuse_17;
	phases "AN";
	from node:1122;
	to node:942;
	current_limit 5000.0;
	status CLOSED;
}

object fuse:2432 {
	name R5-12-47-5_fuse_18;
	phases "ABCN";
	from node:1070;
	to node:1336;
	current_limit 5000.0;
	status CLOSED;
}

object fuse:2433 {
	name R5-12-47-5_fuse_19;
	phases "BN";
	from node:1291;
	to node:1892;
	current_limit 5000.0;
	status CLOSED;
}

object fuse:2434 {
	name R5-12-47-5_fuse_20;
	phases "BN";
	from node:1291;
	to node:1530;
	current_limit 5000.0;
	status CLOSED;
}

object fuse:2435 {
	name R5-12-47-5_fuse_21;
	phases "AN";
	from node:1117;
	to node:2182;
	current_limit 5000.0;
	status CLOSED;
}

object fuse:2436 {
	name R5-12-47-5_fuse_22;
	phases "AN";
	from node:1275;
	to node:896;
	current_limit 5000.0;
	status CLOSED;
}

object fuse:2437 {
	name R5-12-47-5_fuse_23;
	phases "BN";
	from node:2081;
	to node:1681;
	current_limit 5000.0;
	status CLOSED;
}

object fuse:2438 {
	name R5-12-47-5_fuse_24;
	phases "BN";
	from node:1717;
	to node:2101;
	current_limit 5000.0;
	status CLOSED;
}

object fuse:2439 {
	name R5-12-47-5_fuse_25;
	phases "CN";
	from node:2001;
	to node:992;
	current_limit 5000.0;
	status CLOSED;
}

object fuse:2442 {
	name R5-12-47-5_fuse_26;
	phases "AN";
	from node:1372;
	to node:1473;
	current_limit 5000.0;
	status CLOSED;
}

object fuse:2443 {
	name R5-12-47-5_fuse_27;
	phases "AN";
	from node:1372;
	to node:2152;
	current_limit 5000.0;
	status CLOSED;
}

object fuse:2446 {
	name R5-12-47-5_fuse_28;
	phases "AN";
	from node:1490;
	to node:2134;
	current_limit 5000.0;
	status CLOSED;
}

object fuse:2464 {
	name R5-12-47-5_fuse_29;
	phases "ABCN";
	from node:1993;
	to node:1693;
	current_limit 5000.0;
	status CLOSED;
}

object fuse:2465 {
	name R5-12-47-5_fuse_30;
	phases "ABCN";
	from node:1993;
	to node:2186;
	current_limit 5000.0;
	status CLOSED;
}

object fuse:2466 {
	name R5-12-47-5_fuse_31;
	phases "ABCN";
	from node:1193;
	to node:1684;
	current_limit 5000.0;
	status CLOSED;
}

object fuse:2467 {
	name R5-12-47-5_fuse_32;
	phases "ABCN";
	from node:1667;
	to node:2050;
	current_limit 5000.0;
	status CLOSED;
}

object fuse:2468 {
	name R5-12-47-5_fuse_33;
	phases "ABCN";
	from node:2118;
	to node:1542;
	current_limit 5000.0;
	status CLOSED;
}

object fuse:2469 {
	name R5-12-47-5_fuse_34;
	phases "ABCN";
	from node:1683;
	to node:1455;
	current_limit 5000.0;
	status CLOSED;
}

object fuse:2470 {
	name R5-12-47-5_fuse_35;
	phases "BN";
	from node:1285;
	to node:2010;
	current_limit 5000.0;
	status CLOSED;
}

object fuse:2471 {
	name R5-12-47-5_fuse_36;
	phases "BN";
	from node:2061;
	to node:1289;
	current_limit 5000.0;
	status CLOSED;
}

object fuse:2472 {
	name R5-12-47-5_fuse_37;
	phases "ABCN";
	from node:1433;
	to node:1893;
	current_limit 5000.0;
	status CLOSED;
}

object fuse:2475 {
	name R5-12-47-5_fuse_38;
	phases "CN";
	from node:890;
	to node:1524;
	current_limit 5000.0;
	status CLOSED;
}

object fuse:2476 {
	name R5-12-47-5_fuse_39;
	phases "CN";
	from node:1746;
	to node:1606;
	current_limit 5000.0;
	status CLOSED;
}

object fuse:2477 {
	name R5-12-47-5_fuse_40;
	phases "CN";
	from node:1382;
	to node:1553;
	current_limit 5000.0;
	status OPEN;
}

object fuse:2479 {
	name R5-12-47-5_fuse_41;
	phases "BN";
	from node:1179;
	to node:1631;
	current_limit 5000.0;
	status CLOSED;
}

object fuse:2482 {
	name R5-12-47-5_fuse_42;
	phases "CN";
	from node:1274;
	to node:1170;
	current_limit 5000.0;
	status CLOSED;
}

object fuse:2483 {
	name R5-12-47-5_fuse_43;
	phases "CN";
	from node:955;
	to node:2175;
	current_limit 5000.0;
	status CLOSED;
}

object fuse:2491 {
	name R5-12-47-5_fuse_44;
	phases "CN";
	from node:1967;
	to node:1867;
	current_limit 5000.0;
	status CLOSED;
}

object fuse:2492 {
	name R5-12-47-5_fuse_45;
	phases "ABCN";
	from node:1494;
	to node:2191;
	current_limit 5000.0;
	status CLOSED;
}

object fuse:2493 {
	name R5-12-47-5_fuse_46;
	phases "CN";
	from node:1214;
	to node:2155;
	current_limit 5000.0;
	status CLOSED;
}

object fuse:2616 {
	name R5-12-47-5_fuse_47;
	phases "BN";
	from node:900;
	to node:1077;
	current_limit 5000.0;
	status OPEN;
}

object fuse:2621 {
	name R5-12-47-5_fuse_48;
	phases "AN";
	from node:900;
	to node:1325;
	current_limit 5000.0;
	status CLOSED;
}

object fuse:2624 {
	name R5-12-47-5_fuse_49;
	phases "CN";
	from node:900;
	to node:1294;
	current_limit 5000.0;
	status CLOSED;
}

object fuse:2625 {
	name R5-12-47-5_fuse_50;
	phases "BN";
	from node:1232;
	to node:2185;
	current_limit 5000.0;
	status OPEN;
}

object fuse:2627 {
	name R5-12-47-5_fuse_51;
	phases "CN";
	from node:1232;
	to node:1417;
	current_limit 5000.0;
	status CLOSED;
}

object fuse:2629 {
	name R5-12-47-5_fuse_52;
	phases "AN";
	from node:1232;
	to node:1664;
	current_limit 5000.0;
	status OPEN;
}

object fuse:2632 {
	name R5-12-47-5_fuse_53;
	phases "ABCN";
	from node:1507;
	to node:1236;
	current_limit 5000.0;
	status CLOSED;
}

object fuse:2636 {
	name R5-12-47-5_fuse_54;
	phases "BN";
	from node:2054;
	to node:1314;
	current_limit 5000.0;
	status CLOSED;
}

object fuse:2637 {
	name R5-12-47-5_fuse_55;
	phases "CN";
	from node:2054;
	to node:1729;
	current_limit 5000.0;
	status OPEN;
}

object fuse:2640 {
	name R5-12-47-5_fuse_56;
	phases "AN";
	from node:2054;
	to node:1779;
	current_limit 5000.0;
	status CLOSED;
}

object fuse:2643 {
	name R5-12-47-5_fuse_57;
	phases "CN";
	from node:2003;
	to node:983;
	current_limit 5000.0;
	status CLOSED;
}

object fuse:2644 {
	name R5-12-47-5_fuse_58;
	phases "BN";
	from node:2003;
	to node:1419;
	current_limit 5000.0;
	status CLOSED;
}

object fuse:2652 {
	name R5-12-47-5_fuse_59;
	phases "BN";
	from node:2115;
	to node:993;
	current_limit 5000.0;
	status CLOSED;
}

object fuse:2656 {
	name R5-12-47-5_fuse_60;
	phases "AN";
	from node:2003;
	to node:1224;
	current_limit 5000.0;
	status OPEN;
}

object fuse:2658 {
	name R5-12-47-5_fuse_61;
	phases "ABCN";
	from node:1598;
	to node:1209;
	current_limit 5000.0;
	status CLOSED;
}

object fuse:2663 {
	name R5-12-47-5_fuse_62;
	phases "AN";
	from node:997;
	to node:2022;
	current_limit 5000.0;
	status OPEN;
}

object fuse:2664 {
	name R5-12-47-5_fuse_63;
	phases "BN";
	from node:997;
	to node:2082;
	current_limit 5000.0;
	status OPEN;
}

object fuse:2665 {
	name R5-12-47-5_fuse_64;
	phases "CN";
	from node:997;
	to node:1461;
	current_limit 5000.0;
	status CLOSED;
}

object fuse:2670 {
	name R5-12-47-5_fuse_65;
	phases "ABCN";
	from node:1321;
	to node:1613;
	current_limit 5000.0;
	status CLOSED;
}

object fuse:2683 {
	name R5-12-47-5_fuse_66;
	phases "CN";
	from node:962;
	to node:1817;
	current_limit 5000.0;
	status CLOSED;
}

object fuse:2705 {
	name R5-12-47-5_fuse_67;
	phases "ABCN";
	from node:1710;
	to node:1446;
	current_limit 5000.0;
	status CLOSED;
}

object fuse:2707 {
	name R5-12-47-5_fuse_68;
	phases "ABCN";
	from node:2218;
	to node:1651;
	current_limit 5000.0;
	status OPEN;
}

object fuse:2728 {
	name R5-12-47-5_fuse_69;
	phases "ABCN";
	from node:1565;
	to node:1965;
	current_limit 5000.0;
	status CLOSED;
}

object fuse:2729 {
	name R5-12-47-5_fuse_70;
	phases "AN";
	from node:1171;
	to node:1925;
	current_limit 5000.0;
	status OPEN;
}

object fuse:2730 {
	name R5-12-47-5_fuse_71;
	phases "BN";
	from node:1171;
	to node:972;
	current_limit 5000.0;
	status CLOSED;
}

object fuse:2731 {
	name R5-12-47-5_fuse_72;
	phases "CN";
	from node:1171;
	to node:1721;
	current_limit 5000.0;
	status CLOSED;
}

object fuse:2734 {
	name R5-12-47-5_fuse_73;
	phases "AN";
	from node:1676;
	to node:1444;
	current_limit 5000.0;
	status CLOSED;
}

object fuse:2735 {
	name R5-12-47-5_fuse_74;
	phases "BN";
	from node:1676;
	to node:1158;
	current_limit 5000.0;
	status CLOSED;
}

object fuse:2736 {
	name R5-12-47-5_fuse_75;
	phases "CN";
	from node:1676;
	to node:1588;
	current_limit 5000.0;
	status CLOSED;
}

object fuse:2740 {
	name R5-12-47-5_fuse_76;
	phases "ABCN";
	from node:1410;
	to node:2032;
	current_limit 5000.0;
	status CLOSED;
}

object fuse:2743 {
	name R5-12-47-5_fuse_77;
	phases "ABCN";
	from node:1595;
	to node:2149;
	current_limit 5000.0;
	status CLOSED;
}

object fuse:2745 {
	name R5-12-47-5_fuse_78;
	phases "BN";
	from node:1346;
	to node:1902;
	current_limit 5000.0;
	status CLOSED;
}

object fuse:2749 {
	name R5-12-47-5_fuse_79;
	phases "ABCN";
	from node:1961;
	to node:1923;
	current_limit 5000.0;
	status OPEN;
}

object fuse:2750 {
	name R5-12-47-5_fuse_80;
	phases "AN";
	from node:1380;
	to node:1618;
	current_limit 5000.0;
	status CLOSED;
}

object fuse:2751 {
	name R5-12-47-5_fuse_81;
	phases "BN";
	from node:1380;
	to node:1935;
	current_limit 5000.0;
	status CLOSED;
}

object fuse:2753 {
	name R5-12-47-5_fuse_82;
	phases "CN";
	from node:1380;
	to node:1009;
	current_limit 5000.0;
	status CLOSED;
}

object fuse:2755 {
	name R5-12-47-5_fuse_83;
	phases "ABCN";
	from node:1520;
	to node:2105;
	current_limit 5000.0;
	status CLOSED;
}

object fuse:2757 {
	name R5-12-47-5_fuse_84;
	phases "ABCN";
	from node:1221;
	to node:1790;
	current_limit 5000.0;
	status CLOSED;
}

object fuse:2763 {
	name R5-12-47-5_fuse_85;
	phases "ABCN";
	from node:1876;
	to node:1677;
	current_limit 5000.0;
	status CLOSED;
}

object fuse:2774 {
	name R5-12-47-5_fuse_86;
	phases "AN";
	from node:1263;
	to node:1137;
	current_limit 5000.0;
	status CLOSED;
}

object fuse:2775 {
	name R5-12-47-5_fuse_87;
	phases "AN";
	from node:1908;
	to node:1762;
	current_limit 5000.0;
	status CLOSED;
}

object fuse:2779 {
	name R5-12-47-5_fuse_88;
	phases "AN";
	from node:1277;
	to node:1531;
	current_limit 5000.0;
	status CLOSED;
}

object fuse:2897 {
	name R5-12-47-5_fuse_89;
	phases "CN";
	from node:1960;
	to node:1397;
	current_limit 5000.0;
	status CLOSED;
}

object fuse:2898 {
	name R5-12-47-5_fuse_90;
	phases "CN";
	from node:2091;
	to node:1255;
	current_limit 5000.0;
	status CLOSED;
}

object fuse:2931 {
	name R5-12-47-5_fuse_91;
	phases "CN";
	from node:1549;
	to node:1006;
	current_limit 5000.0;
	status CLOSED;
}

object fuse:2948 {
	name R5-12-47-5_fuse_92;
	phases "ABCN";
	from node:2060;
	to node:1279;
	current_limit 5000.0;
	status CLOSED;
}

object fuse:2966 {
	name R5-12-47-5_fuse_93;
	phases "ABCN";
	from node:2025;
	to node:1654;
	current_limit 5000.0;
	status CLOSED;
}

object fuse:2978 {
	name R5-12-47-5_fuse_94;
	phases "CN";
	from node:1346;
	to node:1196;
	current_limit 5000.0;
	status CLOSED;
}

object fuse:2979 {
	name R5-12-47-5_fuse_95;
	phases "AN";
	from node:1346;
	to node:1513;
	current_limit 5000.0;
	status OPEN;
}

object fuse:3001 {
	name R5-12-47-5_fuse_96;
	phases "CN";
	from node:2150;
	to node:2162;
	current_limit 5000.0;
	status CLOSED;
}

object fuse:3003 {
	name R5-12-47-5_fuse_97;
	phases "AN";
	from node:1291;
	to node:1662;
	current_limit 5000.0;
	status CLOSED;
}

object fuse:3004 {
	name R5-12-47-5_fuse_98;
	phases "AN";
	from node:1389;
	to node:1841;
	current_limit 5000.0;
	status CLOSED;
}

object fuse:3009 {
	name R5-12-47-5_fuse_99;
	phases "CN";
	from node:1583;
	to node:934;
	current_limit 5000.0;
	status CLOSED;
}

object fuse:3013 {
	name R5-12-47-5_fuse_100;
	phases "CN";
	from node:1920;
	to node:1585;
	current_limit 5000.0;
	status CLOSED;
}

object fuse:3015 {
	name R5-12-47-5_fuse_101;
	phases "ACN";
	from node:1920;
	to node:1614;
	current_limit 5000.0;
	status CLOSED;
}

object fuse:3017 {
	name R5-12-47-5_fuse_102;
	phases "CN";
	from node:2136;
	to node:1131;
	current_limit 5000.0;
	status CLOSED;
}

object fuse:3018 {
	name R5-12-47-5_fuse_103;
	phases "ABCN";
	from node:1828;
	to node:1031;
	current_limit 5000.0;
	status CLOSED;
}

object fuse:3073 {
	name R5-12-47-5_fuse_104;
	phases "BN";
	from node:1502;
	to node:1975;
	current_limit 5000.0;
	status CLOSED;
}

object fuse:3094 {
	name R5-12-47-5_fuse_105;
	phases "CN";
	from node:1263;
	to node:2190;
	current_limit 5000.0;
	status CLOSED;
}

object fuse:3109 {
	name R5-12-47-5_fuse_106;
	phases "CN";
	from node:1025;
	to node:2173;
	current_limit 5000.0;
	status CLOSED;
}

object fuse:3134 {
	name R5-12-47-5_fuse_107;
	phases "CN";
	from node:1714;
	to node:1994;
	current_limit 5000.0;
	status CLOSED;
}

object fuse:3177 {
	name R5-12-47-5_fuse_109;
	phases "ABCN";
	from node:1799;
	to node:911;
	current_limit 5000.0;
	status CLOSED;
}

object fuse:3195 {
	name R5-12-47-5_fuse_110;
	phases "ABCN";
	from node:1004;
	to node:2102;
	current_limit 5000.0;
	status CLOSED;
}

object fuse:3210 {
	name R5-12-47-5_fuse_111;
	phases "ABCN";
	from node:1350;
	to node:1785;
	current_limit 5000.0;
	status CLOSED;
}

object fuse:3212 {
	name R5-12-47-5_fuse_112;
	phases "AN";
	from node:1574;
	to node:1052;
	current_limit 5000.0;
	status CLOSED;
}

object fuse:3219 {
	name R5-12-47-5_fuse_113;
	phases "ABCN";
	from node:1989;
	to node:2139;
	current_limit 5000.0;
	status CLOSED;
}

object fuse:3238 {
	name R5-12-47-5_fuse_114;
	phases "ACN";
	from node:1793;
	to node:1027;
	current_limit 5000.0;
	status CLOSED;
}

object fuse:3241 {
	name R5-12-47-5_fuse_115;
	phases "AN";
	from node:1654;
	to node:2180;
	current_limit 5000.0;
	status CLOSED;
}

object fuse:3242 {
	name R5-12-47-5_fuse_116;
	phases "BN";
	from node:1654;
	to node:968;
	current_limit 5000.0;
	status CLOSED;
}

object fuse:3243 {
	name R5-12-47-5_fuse_117;
	phases "BN";
	from node:1822;
	to node:1075;
	current_limit 5000.0;
	status CLOSED;
}

object fuse:3247 {
	name R5-12-47-5_fuse_118;
	phases "AN";
	from node:1023;
	to node:1624;
	current_limit 5000.0;
	status CLOSED;
}

object fuse:3249 {
	name R5-12-47-5_fuse_119;
	phases "CN";
	from node:1514;
	to node:1213;
	current_limit 5000.0;
	status CLOSED;
}

object fuse:3250 {
	name R5-12-47-5_fuse_120;
	phases "CN";
	from node:1500;
	to node:1833;
	current_limit 5000.0;
	status CLOSED;
}

object fuse:3251 {
	name R5-12-47-5_fuse_121;
	phases "AN";
	from node:1500;
	to node:1243;
	current_limit 5000.0;
	status CLOSED;
}

object fuse:3256 {
	name R5-12-47-5_fuse_122;
	phases "BN";
	from node:1497;
	to node:1087;
	current_limit 5000.0;
	status CLOSED;
}

object fuse:3261 {
	name R5-12-47-5_fuse_123;
	phases "BN";
	from node:1322;
	to node:2132;
	current_limit 5000.0;
	status CLOSED;
}

object fuse:3267 {
	name R5-12-47-5_fuse_124;
	phases "BN";
	from node:1805;
	to node:1183;
	current_limit 5000.0;
	status CLOSED;
}

object fuse:3273 {
	name R5-12-47-5_fuse_125;
	phases "ABCN";
	from node:1736;
	to node:1058;
	current_limit 5000.0;
	status CLOSED;
}

object fuse:3275 {
	name R5-12-47-5_fuse_126;
	phases "AN";
	from node:1707;
	to node:1366;
	current_limit 5000.0;
	status CLOSED;
}

object fuse:3292 {
	name R5-12-47-5_fuse_127;
	phases "BN";
	from node:1521;
	to node:2092;
	current_limit 5000.0;
	status CLOSED;
}

object fuse:3294 {
	name R5-12-47-5_fuse_128;
	phases "CN";
	from node:1521;
	to node:1767;
	current_limit 5000.0;
	status CLOSED;
}

object fuse:3295 {
	name R5-12-47-5_fuse_129;
	phases "AN";
	from node:2089;
	to node:2058;
	current_limit 5000.0;
	status CLOSED;
}

object fuse:3297 {
	name R5-12-47-5_fuse_130;
	phases "AN";
	from node:2081;
	to node:2018;
	current_limit 5000.0;
	status CLOSED;
}

object fuse:3300 {
	name R5-12-47-5_fuse_131;
	phases "BN";
	from node:1901;
	to node:1534;
	current_limit 5000.0;
	status CLOSED;
}

object fuse:3305 {
	name R5-12-47-5_fuse_132;
	phases "BCN";
	from node:1208;
	to node:933;
	current_limit 5000.0;
	status CLOSED;
}

object fuse:3307 {
	name R5-12-47-5_fuse_133;
	phases "AN";
	from node:1713;
	to node:951;
	current_limit 5000.0;
	status CLOSED;
}

object fuse:3309 {
	name R5-12-47-5_fuse_134;
	phases "CN";
	from node:953;
	to node:1218;
	current_limit 5000.0;
	status CLOSED;
}

object fuse:3314 {
	name R5-12-47-5_fuse_135;
	phases "CN";
	from node:1165;
	to node:931;
	current_limit 5000.0;
	status CLOSED;
}

object fuse:3315 {
	name R5-12-47-5_fuse_136;
	phases "CN";
	from node:2040;
	to node:1543;
	current_limit 5000.0;
	status CLOSED;
}

object fuse:3318 {
	name R5-12-47-5_fuse_137;
	phases "AN";
	from node:2196;
	to node:1234;
	current_limit 5000.0;
	status CLOSED;
}

object fuse:3319 {
	name R5-12-47-5_fuse_138;
	phases "BN";
	from node:947;
	to node:1440;
	current_limit 5000.0;
	status CLOSED;
}

object fuse:3340 {
	name R5-12-47-5_fuse_139;
	phases "CN";
	from node:1218;
	to node:2225;
	current_limit 5000.0;
	status CLOSED;
}

object fuse:3343 {
	name R5-12-47-5_fuse_140;
	phases "AN";
	from node:1234;
	to node:1092;
	current_limit 5000.0;
	status CLOSED;
}

object fuse:3345 {
	name R5-12-47-5_fuse_141;
	phases "AN";
	from node:1398;
	to node:1372;
	current_limit 5000.0;
	status CLOSED;
}

object fuse:3346 {
	name R5-12-47-5_fuse_142;
	phases "BN";
	from node:1141;
	to node:1643;
	current_limit 5000.0;
	status CLOSED;
}

object fuse:3350 {
	name R5-12-47-5_fuse_143;
	phases "BN";
	from node:916;
	to node:1375;
	current_limit 5000.0;
	status CLOSED;
}

object fuse:3362 {
	name R5-12-47-5_fuse_144;
	phases "AN";
	from node:2192;
	to node:2159;
	current_limit 5000.0;
	status CLOSED;
}

object fuse:3371 {
	name R5-12-47-5_fuse_145;
	phases "ACN";
	from node:1309;
	to node:2210;
	current_limit 5000.0;
	status CLOSED;
}


object line_configuration:2228 {
	conductor_C underground_line_conductor:42;
	conductor_N underground_line_conductor:42;
	spacing line_spacing:2227;
}

object line_configuration:2230 {
	conductor_A overhead_line_conductor:39;
	conductor_B overhead_line_conductor:39;
	conductor_C overhead_line_conductor:39;
	conductor_N overhead_line_conductor:39;
	spacing line_spacing:2229;
}

object line_configuration:2232 {
	conductor_B overhead_line_conductor:11;
	conductor_N overhead_line_conductor:11;
	spacing line_spacing:2231;
}

object line_configuration:2234 {
	conductor_A underground_line_conductor:42;
	conductor_N underground_line_conductor:42;
	spacing line_spacing:2233;
}

object line_configuration:2235 {
	conductor_A overhead_line_conductor:31;
	conductor_B overhead_line_conductor:31;
	conductor_C overhead_line_conductor:31;
	conductor_N overhead_line_conductor:31;
	spacing line_spacing:2229;
}

object line_configuration:2236 {
	conductor_A overhead_line_conductor:19;
	conductor_B overhead_line_conductor:19;
	conductor_C overhead_line_conductor:19;
	conductor_N overhead_line_conductor:19;
	spacing line_spacing:2229;
}

object line_configuration:2237 {
	conductor_B overhead_line_conductor:19;
	conductor_N overhead_line_conductor:19;
	spacing line_spacing:2231;
}

object line_configuration:2238 {
	conductor_C overhead_line_conductor:19;
	conductor_N overhead_line_conductor:19;
	spacing line_spacing:2227;
}

object line_configuration:2239 {
	conductor_C overhead_line_conductor:11;
	conductor_N overhead_line_conductor:11;
	spacing line_spacing:2227;
}

object line_configuration:2240 {
	conductor_C overhead_line_conductor:11;
	conductor_N overhead_line_conductor:11;
	spacing line_spacing:2227;
}

object line_configuration:2241 {
	conductor_C underground_line_conductor:44;
	conductor_N underground_line_conductor:44;
	spacing line_spacing:2227;
}

object line_configuration:2242 {
	conductor_B underground_line_conductor:42;
	conductor_N underground_line_conductor:42;
	spacing line_spacing:2231;
}

object line_configuration:2243 {
	conductor_B underground_line_conductor:44;
	conductor_N underground_line_conductor:44;
	spacing line_spacing:2231;
}

object line_configuration:2244 {
	conductor_A overhead_line_conductor:15;
	conductor_N overhead_line_conductor:15;
	spacing line_spacing:2233;
}

object line_configuration:2245 {
	conductor_A overhead_line_conductor:19;
	conductor_N overhead_line_conductor:19;
	spacing line_spacing:2233;
}

object line_configuration:2246 {
	conductor_B overhead_line_conductor:15;
	conductor_N overhead_line_conductor:15;
	spacing line_spacing:2231;
}

object line_configuration:2247 {
	conductor_A overhead_line_conductor:11;
	conductor_N overhead_line_conductor:11;
	spacing line_spacing:2233;
}

object line_configuration:2248 {
	conductor_A overhead_line_conductor:11;
	conductor_N overhead_line_conductor:11;
	spacing line_spacing:2233;
}

object line_configuration:2250 {
	conductor_A overhead_line_conductor:11;
	conductor_C overhead_line_conductor:11;
	conductor_N overhead_line_conductor:11;
	spacing line_spacing:2249;
}

object line_configuration:2251 {
	conductor_A overhead_line_conductor:13;
	conductor_B overhead_line_conductor:13;
	conductor_C overhead_line_conductor:13;
	conductor_N overhead_line_conductor:13;
	spacing line_spacing:2229;
}

object line_configuration:2252 {
	conductor_A overhead_line_conductor:11;
	conductor_B overhead_line_conductor:11;
	conductor_C overhead_line_conductor:11;
	conductor_N overhead_line_conductor:11;
	spacing line_spacing:2229;
}

object line_configuration:2253 {
	conductor_A overhead_line_conductor:13;
	conductor_C overhead_line_conductor:13;
	conductor_N overhead_line_conductor:13;
	spacing line_spacing:2249;
}

object line_configuration:2254 {
	conductor_A overhead_line_conductor:11;
	conductor_C overhead_line_conductor:11;
	conductor_N overhead_line_conductor:11;
	spacing line_spacing:2249;
}

object line_configuration:2255 {
	conductor_C overhead_line_conductor:13;
	conductor_N overhead_line_conductor:13;
	spacing line_spacing:2227;
}

object line_configuration:2256 {
	conductor_A overhead_line_conductor:13;
	conductor_N overhead_line_conductor:13;
	spacing line_spacing:2233;
}

object line_configuration:2257 {
	conductor_A overhead_line_conductor:19;
	conductor_C overhead_line_conductor:19;
	conductor_N overhead_line_conductor:19;
	spacing line_spacing:2249;
}

object line_configuration:2258 {
	conductor_B overhead_line_conductor:13;
	conductor_N overhead_line_conductor:13;
	spacing line_spacing:2231;
}

object line_configuration:2259 {
	conductor_B overhead_line_conductor:11;
	conductor_N overhead_line_conductor:11;
	spacing line_spacing:2231;
}

object line_configuration:2260 {
	conductor_A underground_line_conductor:47;
	conductor_B underground_line_conductor:47;
	conductor_C underground_line_conductor:47;
	conductor_N underground_line_conductor:47;
	spacing line_spacing:2229;
}

object line_configuration:2261 {
	conductor_A underground_line_conductor:42;
	conductor_B underground_line_conductor:42;
	conductor_C underground_line_conductor:42;
	conductor_N underground_line_conductor:42;
	spacing line_spacing:2229;
}

object line_configuration:2262 {
	conductor_B overhead_line_conductor:40;
	conductor_N overhead_line_conductor:40;
	spacing line_spacing:2231;
}

object line_configuration:2263 {
	conductor_A overhead_line_conductor:40;
	conductor_N overhead_line_conductor:40;
	spacing line_spacing:2233;
}

object line_configuration:2264 {
	conductor_A overhead_line_conductor:40;
	conductor_B overhead_line_conductor:40;
	conductor_C overhead_line_conductor:40;
	conductor_N overhead_line_conductor:40;
	spacing line_spacing:2229;
}

object line_configuration:2265 {
	conductor_C overhead_line_conductor:40;
	conductor_N overhead_line_conductor:40;
	spacing line_spacing:2227;
}

object line_configuration:2266 {
	conductor_A underground_line_conductor:44;
	conductor_B underground_line_conductor:44;
	conductor_C underground_line_conductor:44;
	conductor_N underground_line_conductor:44;
	spacing line_spacing:2229;
}

object line_configuration:2267 {
	conductor_A overhead_line_conductor:15;
	conductor_B overhead_line_conductor:15;
	conductor_C overhead_line_conductor:15;
	conductor_N overhead_line_conductor:15;
	spacing line_spacing:2229;
}

object line_configuration:2268 {
	conductor_C overhead_line_conductor:15;
	conductor_N overhead_line_conductor:15;
	spacing line_spacing:2227;
}

object line_configuration:2269 {
	conductor_A overhead_line_conductor:15;
	conductor_C overhead_line_conductor:15;
	conductor_N overhead_line_conductor:15;
	spacing line_spacing:2249;
}

object line_configuration:2270 {
	conductor_A overhead_line_conductor:11;
	conductor_B overhead_line_conductor:11;
	conductor_C overhead_line_conductor:11;
	conductor_N overhead_line_conductor:11;
	spacing line_spacing:2229;
}

object line_configuration:2272 {
	conductor_B overhead_line_conductor:11;
	conductor_C overhead_line_conductor:11;
	conductor_N overhead_line_conductor:11;
	spacing line_spacing:2271;
}

object line_configuration:2273 {
	conductor_B overhead_line_conductor:19;
	conductor_C overhead_line_conductor:19;
	conductor_N overhead_line_conductor:19;
	spacing line_spacing:2271;
}


object line_spacing:2227 {
	distance_CN 36.0 in;
}

object line_spacing:2229 {
	distance_AB 48.0 in;
	distance_BC 48.0 in;
	distance_AC 48.0 in;
	distance_AN 36.0 in;
	distance_BN 36.0 in;
	distance_CN 36.0 in;
}

object line_spacing:2231 {
	distance_BN 36.0 in;
}

object line_spacing:2233 {
	distance_AN 36.0 in;
}

object line_spacing:2249 {
	distance_AC 48.0 in;
	distance_AN 36.0 in;
	distance_CN 36.0 in;
}

object line_spacing:2271 {
	distance_BC 48.0 in;
	distance_BN 36.0 in;
	distance_CN 36.0 in;
}


object load {
	name R5-12-47-5_load_1;
	parent R5-12-47-5_meter_1;
	phases "ABCN";
	nominal_voltage 7199.558;
	voltage_A 7199.558+0.0j;
	voltage_B -3599.779-6235.000j;
	voltage_C -3599.779+6235.000j;
	constant_power_A 8103.327+3756.886j;
	constant_power_B 8630.303+4055.027j;
	constant_power_C 7209.881+3411.095j;
	load_class "C";
}

object load {
	name R5-12-47-5_load_2;
	parent R5-12-47-5_meter_2;
	phases "ABCN";
	nominal_voltage 7199.558;
	voltage_A 7199.558+0.0j;
	voltage_B -3599.779-6235.000j;
	voltage_C -3599.779+6235.000j;
	constant_power_A 46794.354+21694.927j;
	constant_power_B 49837.488+23416.599j;
	constant_power_C 41634.968+19698.081j;
	load_class "C";
}

object load {
	name R5-12-47-5_load_3;
	parent R5-12-47-5_meter_3;
	phases "ABCN";
	nominal_voltage 7199.558;
	voltage_A 7199.558+0.0j;
	voltage_B -3599.779-6235.000j;
	voltage_C -3599.779+6235.000j;
	constant_power_A 30453.014+14118.710j;
	constant_power_B 32433.437+15239.147j;
	constant_power_C 27095.369+12819.195j;
	load_class "C";
}

object load {
	name R5-12-47-5_load_4;
	parent R5-12-47-5_meter_4;
	phases "ABCN";
	nominal_voltage 7199.558;