// $Id: R5-12.47-4.glm 1132 2008-11-18 22:36:10Z dchassin $ 
//*********************************************

clock { 
	 timezone EST+5EDT;
	 timestamp '2000-01-01 0:00:00';
}

//*********************************************
// modules
module powerflow;


object fuse:1354 {
	name R5-12-47-4_fuse_1;
	phases "AN";
	from node:766;
	to node:1160;
	current_limit 5000.0;
	status CLOSED;
}

object fuse:1543 {
	name R5-12-47-4_fuse_2;
	phases "ABCN";
	from node:750;
	to node:695;
	current_limit 5000.0;
	status CLOSED;
}

object fuse:1553 {
	name R5-12-47-4_fuse_3;
	phases "ABCN";
	from node:686;
	to node:633;
	current_limit 5000.0;
	status CLOSED;
}

object fuse:1554 {
	name R5-12-47-4_fuse_4;
	phases "ABCN";
	from node:627;
	to node:1181;
	current_limit 5000.0;
	status OPEN;
}

object fuse:1558 {
	name R5-12-47-4_fuse_5;
	phases "ABCN";
	from node:712;
	to node:770;
	current_limit 5000.0;
	status CLOSED;
}

object fuse:1559 {
	name R5-12-47-4_fuse_6;
	phases "ABCN";
	from node:870;
	to node:761;
	current_limit 5000.0;
	status CLOSED;
}

object fuse:1587 {
	name R5-12-47-4_fuse_7;
	phases "ABCN";
	from node:1184;
	to node:1145;
	current_limit 5000.0;
	status CLOSED;
}

object fuse:1604 {
	name R5-12-47-4_fuse_8;
	phases "AN";
	from node:981;
	to node:766;
	current_limit 5000.0;
	status CLOSED;
}

object fuse:1644 {
	name R5-12-47-4_fuse_9;
	phases "AN";
	from node:1162;
	to node:1257;
	current_limit 5000.0;
	status OPEN;
}

object fuse:1645 {
	name R5-12-47-4_fuse_10;
	phases "BN";
	from node:1162;
	to node:1286;
	current_limit 5000.0;
	status CLOSED;
}

object fuse:1647 {
	name R5-12-47-4_fuse_11;
	phases "CN";
	from node:1162;
	to node:704;
	current_limit 5000.0;
	status CLOSED;
}

object fuse:1649 {
	name R5-12-47-4_fuse_12;
	phases "ABCN";
	from node:923;
	to node:584;
	current_limit 5000.0;
	status CLOSED;
}

object fuse:1654 {
	name R5-12-47-4_fuse_13;
	phases "ABCN";
	from node:1237;
	to node:1124;
	current_limit 5000.0;
	status CLOSED;
}

object fuse:1658 {
	name R5-12-47-4_fuse_14;
	phases "AN";
	from node:1178;
	to node:1243;
	current_limit 5000.0;
	status CLOSED;
}

object fuse:1659 {
	name R5-12-47-4_fuse_15;
	phases "CN";
	from node:568;
	to node:878;
	current_limit 5000.0;
	status CLOSED;
}

object fuse:1664 {
	name R5-12-47-4_fuse_16;
	phases "CN";
	from node:585;
	to node:1006;
	current_limit 5000.0;
	status CLOSED;
}

object fuse:1680 {
	name R5-12-47-4_fuse_17;
	phases "ABCN";
	from node:739;
	to node:1002;
	current_limit 5000.0;
	status CLOSED;
}

object fuse:1693 {
	name R5-12-47-4_fuse_18;
	phases "ABCN";
	from node:1295;
	to node:979;
	current_limit 5000.0;
	status CLOSED;
}

object fuse:1697 {
	name R5-12-47-4_fuse_19;
	phases "ABCN";
	from node:714;
	to node:1014;
	current_limit 5000.0;
	status CLOSED;
}

object fuse:1719 {
	name R5-12-47-4_fuse_20;
	phases "ABCN";
	from node:765;
	to node:658;
	current_limit 5000.0;
	status CLOSED;
}

object fuse:1734 {
	name R5-12-47-4_fuse_21;
	phases "ABCN";
	from node:1246;
	to node:812;
	current_limit 5000.0;
	status CLOSED;
}

object fuse:1799 {
	name R5-12-47-4_fuse_22;
	phases "ABCN";
	from node:902;
	to node:1138;
	current_limit 5000.0;
	status OPEN;
}

object fuse:1810 {
	name R5-12-47-4_fuse_23;
	phases "ABCN";
	from node:680;
	to node:638;
	current_limit 5000.0;
	status CLOSED;
}

object fuse:1828 {
	name R5-12-47-4_fuse_24;
	phases "ABCN";
	from node:667;
	to node:596;
	current_limit 5000.0;
	status CLOSED;
}

object fuse:1834 {
	name R5-12-47-4_fuse_25;
	phases "ABCN";
	from node:729;
	to node:972;
	current_limit 5000.0;
	status CLOSED;
}

object fuse:1848 {
	name R5-12-47-4_fuse_26;
	phases "CN";
	from node:1302;
	to node:1259;
	current_limit 5000.0;
	status OPEN;
}

object fuse:1850 {
	name R5-12-47-4_fuse_27;
	phases "AN";
	from node:1302;
	to node:965;
	current_limit 5000.0;
	status CLOSED;
}

object fuse:1851 {
	name R5-12-47-4_fuse_28;
	phases "BN";
	from node:1302;
	to node:767;
	current_limit 5000.0;
	status CLOSED;
}

object fuse:1857 {
	name R5-12-47-4_fuse_29;
	phases "ABCN";
	from node:731;
	to node:546;
	current_limit 5000.0;
	status CLOSED;
}

object fuse:1858 {
	name R5-12-47-4_fuse_30;
	phases "ABCN";
	from node:909;
	to node:1210;
	current_limit 5000.0;
	status CLOSED;
}

object fuse:1859 {
	name R5-12-47-4_fuse_31;
	phases "AN";
	from node:569;
	to node:1252;
	current_limit 5000.0;
	status CLOSED;
}

object fuse:1860 {
	name R5-12-47-4_fuse_32;
	phases "BN";
	from node:569;
	to node:1064;
	current_limit 5000.0;
	status CLOSED;
}

object fuse:1861 {
	name R5-12-47-4_fuse_33;
	phases "CN";
	from node:569;
	to node:728;
	current_limit 5000.0;
	status OPEN;
}

object fuse:1864 {
	name R5-12-47-4_fuse_34;
	phases "AN";
	from node:1007;
	to node:1272;
	current_limit 5000.0;
	status CLOSED;
}

object fuse:1865 {
	name R5-12-47-4_fuse_35;
	phases "BN";
	from node:1007;
	to node:795;
	current_limit 5000.0;
	status CLOSED;
}

object fuse:1866 {
	name R5-12-47-4_fuse_36;
	phases "CN";
	from node:1007;
	to node:1089;
	current_limit 5000.0;
	status CLOSED;
}

object fuse:1868 {
	name R5-12-47-4_fuse_37;
	phases "AN";
	from node:945;
	to node:1042;
	current_limit 5000.0;
	status CLOSED;
}

object fuse:1869 {
	name R5-12-47-4_fuse_38;
	phases "BN";
	from node:945;
	to node:1032;
	current_limit 5000.0;
	status OPEN;
}

object fuse:1870 {
	name R5-12-47-4_fuse_39;
	phases "CN";
	from node:945;
	to node:1293;
	current_limit 5000.0;
	status CLOSED;
}

object fuse:1873 {
	name R5-12-47-4_fuse_40;
	phases "ABCN";
	from node:683;
	to node:960;
	current_limit 5000.0;
	status CLOSED;
}

object fuse:1883 {
	name R5-12-47-4_fuse_41;
	phases "AN";
	from node:887;
	to node:566;
	current_limit 5000.0;
	status CLOSED;
}

object fuse:1884 {
	name R5-12-47-4_fuse_42;
	phases "BN";
	from node:887;
	to node:736;
	current_limit 5000.0;
	status CLOSED;
}

object fuse:1885 {
	name R5-12-47-4_fuse_43;
	phases "CN";
	from node:887;
	to node:1087;
	current_limit 5000.0;
	status CLOSED;
}

object fuse:1887 {
	name R5-12-47-4_fuse_44;
	phases "AN";
	from node:954;
	to node:892;
	current_limit 5000.0;
	status OPEN;
}

object fuse:1888 {
	name R5-12-47-4_fuse_45;
	phases "BN";
	from node:954;
	to node:561;
	current_limit 5000.0;
	status OPEN;
}

object fuse:1889 {
	name R5-12-47-4_fuse_46;
	phases "CN";
	from node:954;
	to node:1141;
	current_limit 5000.0;
	status CLOSED;
}

object fuse:1894 {
	name R5-12-47-4_fuse_47;
	phases "CN";
	from node:813;
	to node:947;
	current_limit 5000.0;
	status CLOSED;
}

object fuse:1895 {
	name R5-12-47-4_fuse_48;
	phases "BN";
	from node:813;
	to node:1067;
	current_limit 5000.0;
	status CLOSED;
}

object fuse:1896 {
	name R5-12-47-4_fuse_49;
	phases "AN";
	from node:813;
	to node:678;
	current_limit 5000.0;
	status CLOSED;
}

object fuse:1898 {
	name R5-12-47-4_fuse_50;
	phases "CN";
	from node:1059;
	to node:700;
	current_limit 5000.0;
	status CLOSED;
}

object fuse:1899 {
	name R5-12-47-4_fuse_51;
	phases "ABCN";
	from node:1059;
	to node:1182;
	current_limit 5000.0;
	status CLOSED;
}

object fuse:1900 {
	name R5-12-47-4_fuse_52;
	phases "ABCN";
	from node:972;
	to node:1258;
	current_limit 5000.0;
	status CLOSED;
}

object fuse:1901 {
	name R5-12-47-4_fuse_53;
	phases "ABCN";
	from node:759;
	to node:971;
	current_limit 5000.0;
	status CLOSED;
}

object fuse:1902 {
	name R5-12-47-4_fuse_54;
	phases "ABCN";
	from node:949;
	to node:854;
	current_limit 5000.0;
	status CLOSED;
}

object fuse:1903 {
	name R5-12-47-4_fuse_55;
	phases "ABCN";
	from node:759;
	to node:783;
	current_limit 5000.0;
	status OPEN;
}

object fuse:1904 {
	name R5-12-47-4_fuse_56;
	phases "CN";
	from node:759;
	to node:868;
	current_limit 5000.0;
	status CLOSED;
}

object fuse:1905 {
	name R5-12-47-4_fuse_57;
	phases "CN";
	from node:1003;
	to node:860;
	current_limit 5000.0;
	status CLOSED;
}

object fuse:1907 {
	name R5-12-47-4_fuse_58;
	phases "BN";
	from node:1104;
	to node:1063;
	current_limit 5000.0;
	status CLOSED;
}

object fuse:1909 {
	name R5-12-47-4_fuse_59;
	phases "AN";
	from node:855;
	to node:740;
	current_limit 5000.0;
	status CLOSED;
}

object fuse:1913 {
	name R5-12-47-4_fuse_60;
	phases "AN";
	from node:548;
	to node:994;
	current_limit 5000.0;
	status CLOSED;
}

object fuse:1914 {
	name R5-12-47-4_fuse_61;
	phases "AN";
	from node:994;
	to node:621;
	current_limit 5000.0;
	status CLOSED;
}

object fuse:1916 {
	name R5-12-47-4_fuse_62;
	phases "AN";
	from node:953;
	to node:1161;
	current_limit 5000.0;
	status CLOSED;
}

object fuse:1917 {
	name R5-12-47-4_fuse_63;
	phases "BN";
	from node:1157;
	to node:1092;
	current_limit 5000.0;
	status CLOSED;
}

object fuse:1918 {
	name R5-12-47-4_fuse_64;
	phases "CN";
	from node:1157;
	to node:1278;
	current_limit 5000.0;
	status CLOSED;
}

object fuse:1919 {
	name R5-12-47-4_fuse_65;
	phases "CN";
	from node:1157;
	to node:1155;
	current_limit 5000.0;
	status CLOSED;
}

object fuse:1920 {
	name R5-12-47-4_fuse_66;
	phases "CN";
	from node:542;
	to node:1065;
	current_limit 5000.0;
	status CLOSED;
}

object fuse:1921 {
	name R5-12-47-4_fuse_67;
	phases "CN";
	from node:542;
	to node:1223;
	current_limit 5000.0;
	status CLOSED;
}

object fuse:1922 {
	name R5-12-47-4_fuse_68;
	phases "BN";
	from node:542;
	to node:1125;
	current_limit 5000.0;
	status CLOSED;
}

object fuse:1923 {
	name R5-12-47-4_fuse_69;
	phases "AN";
	from node:1177;
	to node:560;
	current_limit 5000.0;
	status CLOSED;
}

object fuse:1925 {
	name R5-12-47-4_fuse_70;
	phases "CN";
	from node:714;
	to node:786;
	current_limit 5000.0;
	status CLOSED;
}

object fuse:1926 {
	name R5-12-47-4_fuse_71;
	phases "CN";
	from node:815;
	to node:547;
	current_limit 5000.0;
	status CLOSED;
}

object fuse:1928 {
	name R5-12-47-4_fuse_72;
	phases "CN";
	from node:863;
	to node:662;
	current_limit 5000.0;
	status CLOSED;
}

object fuse:1929 {
	name R5-12-47-4_fuse_73;
	phases "CN";
	from node:742;
	to node:1053;
	current_limit 5000.0;
	status CLOSED;
}

object fuse:1931 {
	name R5-12-47-4_fuse_74;
	phases "CN";
	from node:742;
	to node:1123;
	current_limit 5000.0;
	status CLOSED;
}

object fuse:1932 {
	name R5-12-47-4_fuse_75;
	phases "BN";
	from node:1136;
	to node:619;
	current_limit 5000.0;
	status CLOSED;
}

object fuse:1934 {
	name R5-12-47-4_fuse_76;
	phases "BN";
	from node:1075;
	to node:647;
	current_limit 5000.0;
	status CLOSED;
}

object fuse:1939 {
	name R5-12-47-4_fuse_77;
	phases "BN";
	from node:1177;
	to node:1267;
	current_limit 5000.0;
	status OPEN;
}

object fuse:1940 {
	name R5-12-47-4_fuse_78;
	phases "CN";
	from node:1177;
	to node:1114;
	current_limit 5000.0;
	status OPEN;
}

object fuse:1951 {
	name R5-12-47-4_fuse_79;
	phases "ABCN";
	from node:821;
	to node:756;
	current_limit 5000.0;
	status CLOSED;
}

object fuse:1952 {
	name R5-12-47-4_fuse_80;
	phases "CN";
	from node:1256;
	to node:885;
	current_limit 5000.0;
	status CLOSED;
}

object fuse:1953 {
	name R5-12-47-4_fuse_81;
	phases "BN";
	from node:1271;
	to node:894;
	current_limit 5000.0;
	status OPEN;
}

object fuse:1954 {
	name R5-12-47-4_fuse_82;
	phases "ABCN";
	from node:1116;
	to node:601;
	current_limit 5000.0;
	status CLOSED;
}

object fuse:1956 {
	name R5-12-47-4_fuse_83;
	phases "AN";
	from node:948;
	to node:684;
	current_limit 5000.0;
	status CLOSED;
}

object fuse:1957 {
	name R5-12-47-4_fuse_84;
	phases "BN";
	from node:948;
	to node:610;
	current_limit 5000.0;
	status CLOSED;
}

object fuse:1958 {
	name R5-12-47-4_fuse_85;
	phases "CN";
	from node:1209;
	to node:1062;
	current_limit 5000.0;
	status CLOSED;
}

object fuse:1959 {
	name R5-12-47-4_fuse_86;
	phases "CN";
	from node:948;
	to node:1094;
	current_limit 5000.0;
	status CLOSED;
}

object fuse:1960 {
	name R5-12-47-4_fuse_87;
	phases "CN";
	from node:1068;
	to node:1079;
	current_limit 5000.0;
	status CLOSED;
}

object fuse:1961 {
	name R5-12-47-4_fuse_88;
	phases "BN";
	from node:1068;
	to node:587;
	current_limit 5000.0;
	status CLOSED;
}

object fuse:1962 {
	name R5-12-47-4_fuse_89;
	phases "AN";
	from node:1068;
	to node:1192;
	current_limit 5000.0;
	status CLOSED;
}

object fuse:1965 {
	name R5-12-47-4_fuse_90;
	phases "AN";
	from node:933;
	to node:1129;
	current_limit 5000.0;
	status CLOSED;
}

object fuse:1966 {
	name R5-12-47-4_fuse_91;
	phases "AN";
	from node:769;
	to node:865;
	current_limit 5000.0;
	status CLOSED;
}

object fuse:1967 {
	name R5-12-47-4_fuse_92;
	phases "BN";
	from node:933;
	to node:618;
	current_limit 5000.0;
	status OPEN;
}

object fuse:1968 {
	name R5-12-47-4_fuse_93;
	phases "CN";
	from node:1284;
	to node:1095;
	current_limit 5000.0;
	status CLOSED;
}

object fuse:1969 {
	name R5-12-47-4_fuse_94;
	phases "CN";
	from node:1284;
	to node:1016;
	current_limit 5000.0;
	status CLOSED;
}

object fuse:1970 {
	name R5-12-47-4_fuse_95;
	phases "BN";
	from node:1005;
	to node:1251;
	current_limit 5000.0;
	status CLOSED;
}

object fuse:1971 {
	name R5-12-47-4_fuse_96;
	phases "BN";
	from node:1005;
	to node:905;
	current_limit 5000.0;
	status CLOSED;
}

object fuse:1972 {
	name R5-12-47-4_fuse_97;
	phases "AN";
	from node:828;
	to node:938;
	current_limit 5000.0;
	status CLOSED;
}

object fuse:1973 {
	name R5-12-47-4_fuse_98;
	phases "AN";
	from node:1240;
	to node:1245;
	current_limit 5000.0;
	status CLOSED;
}

object fuse:1974 {
	name R5-12-47-4_fuse_99;
	phases "CN";
	from node:1147;
	to node:924;
	current_limit 5000.0;
	status CLOSED;
}

object fuse:1975 {
	name R5-12-47-4_fuse_100;
	phases "BN";
	from node:794;
	to node:1281;
	current_limit 5000.0;
	status CLOSED;
}

object fuse:1976 {
	name R5-12-47-4_fuse_101;
	phases "BN";
	from node:794;
	to node:990;
	current_limit 5000.0;
	status CLOSED;
}

object fuse:1977 {
	name R5-12-47-4_fuse_102;
	phases "BN";
	from node:1228;
	to node:1154;
	current_limit 5000.0;
	status CLOSED;
}

object fuse:1978 {
	name R5-12-47-4_fuse_103;
	phases "AN";
	from node:1228;
	to node:1203;
	current_limit 5000.0;
	status CLOSED;
}

object fuse:1979 {
	name R5-12-47-4_fuse_104;
	phases "AN";
	from node:1023;
	to node:922;
	current_limit 5000.0;
	status CLOSED;
}

object fuse:1980 {
	name R5-12-47-4_fuse_105;
	phases "BN";
	from node:895;
	to node:614;
	current_limit 5000.0;
	status CLOSED;
}

object fuse:1981 {
	name R5-12-47-4_fuse_106;
	phases "BN";
	from node:562;
	to node:1119;
	current_limit 5000.0;
	status CLOSED;
}

object fuse:1982 {
	name R5-12-47-4_fuse_107;
	phases "BN";
	from node:661;
	to node:1060;
	current_limit 5000.0;
	status CLOSED;
}

object fuse:1986 {
	name R5-12-47-4_fuse_108;
	phases "CN";
	from node:1112;
	to node:937;
	current_limit 5000.0;
	status CLOSED;
}

object fuse:1987 {
	name R5-12-47-4_fuse_109;
	phases "AN";
	from node:1166;
	to node:649;
	current_limit 5000.0;
	status CLOSED;
}

object fuse:2002 {
	name R5-12-47-4_fuse_110;
	phases "ABCN";
	from node:889;
	to node:1144;
	current_limit 5000.0;
	status CLOSED;
}


object line_configuration:1307 {
	conductor_A underground_line_conductor:47;
	conductor_B underground_line_conductor:47;
	conductor_C underground_line_conductor:47;
	conductor_N underground_line_conductor:47;
	spacing line_spacing:1306;
}

object line_configuration:1309 {
	conductor_C underground_line_conductor:42;
	conductor_N underground_line_conductor:42;
	spacing line_spacing:1308;
}

object line_configuration:1311 {
	conductor_B underground_line_conductor:42;
	conductor_N underground_line_conductor:42;
	spacing line_spacing:1310;
}

object line_configuration:1312 {
	conductor_A overhead_line_conductor:19;
	conductor_B overhead_line_conductor:19;
	conductor_C overhead_line_conductor:19;
	conductor_N overhead_line_conductor:19;
	spacing line_spacing:1306;
}

object line_configuration:1314 {
	conductor_A underground_line_conductor:42;
	conductor_N underground_line_conductor:42;
	spacing line_spacing:1313;
}

object line_configuration:1315 {
	conductor_A overhead_line_conductor:15;
	conductor_N overhead_line_conductor:15;
	spacing line_spacing:1313;
}

object line_configuration:1316 {
	conductor_A underground_line_conductor:44;
	conductor_B underground_line_conductor:44;
	conductor_C underground_line_conductor:44;
	conductor_N underground_line_conductor:44;
	spacing line_spacing:1306;
}

object line_configuration:1317 {
	conductor_A underground_line_conductor:42;
	conductor_B underground_line_conductor:42;
	conductor_C underground_line_conductor:42;
	conductor_N underground_line_conductor:42;
	spacing line_spacing:1306;
}

object line_configuration:1318 {
	conductor_A overhead_line_conductor:25;
	conductor_B overhead_line_conductor:25;
	conductor_C overhead_line_conductor:25;
	conductor_N overhead_line_conductor:25;
	spacing line_spacing:1306;
}

object line_configuration:1319 {
	conductor_A overhead_line_conductor:19;
	conductor_N overhead_line_conductor:19;
	spacing line_spacing:1313;
}

object line_configuration:1320 {
	conductor_A overhead_line_conductor:19;
	conductor_N overhead_line_conductor:19;
	spacing line_spacing:1313;
}

object line_configuration:1321 {
	conductor_A overhead_line_conductor:15;
	conductor_B overhead_line_conductor:15;
	conductor_C overhead_line_conductor:15;
	conductor_N overhead_line_conductor:15;
	spacing line_spacing:1306;
}

object line_configuration:1322 {
	conductor_C overhead_line_conductor:19;
	conductor_N overhead_line_conductor:19;
	spacing line_spacing:1308;
}

object line_configuration:1323 {
	conductor_A overhead_line_conductor:40;
	conductor_B overhead_line_conductor:40;
	conductor_C overhead_line_conductor:40;
	conductor_N overhead_line_conductor:40;
	spacing line_spacing:1306;
}

object line_configuration:1324 {
	conductor_A overhead_line_conductor:11;
	conductor_B overhead_line_conductor:11;
	conductor_C overhead_line_conductor:11;
	conductor_N overhead_line_conductor:11;
	spacing line_spacing:1306;
}

object line_configuration:1325 {
	conductor_A overhead_line_conductor:19;
	conductor_B overhead_line_conductor:19;
	conductor_C overhead_line_conductor:19;
	conductor_N overhead_line_conductor:19;
	spacing line_spacing:1306;
}

object line_configuration:1326 {
	conductor_C overhead_line_conductor:11;
	conductor_N overhead_line_conductor:11;
	spacing line_spacing:1308;
}

object line_configuration:1328 {
	conductor_B overhead_line_conductor:19;
	conductor_C overhead_line_conductor:19;
	conductor_N overhead_line_conductor:19;
	spacing line_spacing:1327;
}

object line_configuration:1329 {
	conductor_A overhead_line_conductor:31;
	conductor_B overhead_line_conductor:31;
	conductor_C overhead_line_conductor:31;
	conductor_N overhead_line_conductor:31;
	spacing line_spacing:1306;
}

object line_configuration:1330 {
	conductor_A overhead_line_conductor:39;
	conductor_B overhead_line_conductor:39;
	conductor_C overhead_line_conductor:39;
	conductor_N overhead_line_conductor:39;
	spacing line_spacing:1306;
}

object line_configuration:1331 {
	conductor_A overhead_line_conductor:40;
	conductor_N overhead_line_conductor:40;
	spacing line_spacing:1313;
}

object line_configuration:1332 {
	conductor_B overhead_line_conductor:40;
	conductor_N overhead_line_conductor:40;
	spacing line_spacing:1310;
}

object line_configuration:1333 {
	conductor_C overhead_line_conductor:40;
	conductor_N overhead_line_conductor:40;
	spacing line_spacing:1308;
}

object line_configuration:1334 {
	conductor_C overhead_line_conductor:13;
	conductor_N overhead_line_conductor:13;
	spacing line_spacing:1308;
}

object line_configuration:1335 {
	conductor_A overhead_line_conductor:19;
	conductor_N overhead_line_conductor:19;
	spacing line_spacing:1313;
}

object line_configuration:1336 {
	conductor_B overhead_line_conductor:19;
	conductor_N overhead_line_conductor:19;
	spacing line_spacing:1310;
}


object line_spacing:1306 {
	distance_AB 48.0 in;
	distance_BC 48.0 in;
	distance_AC 48.0 in;
	distance_AN 36.0 in;
	distance_BN 36.0 in;
	distance_CN 36.0 in;
}

object line_spacing:1308 {
	distance_CN 36.0 in;
}

object line_spacing:1310 {
	distance_BN 36.0 in;
}

object line_spacing:1313 {
	distance_AN 36.0 in;
}

object line_spacing:1327 {
	distance_BC 48.0 in;
	distance_BN 36.0 in;
	distance_CN 36.0 in;
}


object load {
	name R5-12-47-4_load_1;
	parent R5-12-47-4_meter_1;
	phases "ABCN";
	nominal_voltage 7199.558;
	voltage_A 7199.558+0.0j;
	voltage_B -3599.779-6235.000j;
	voltage_C -3599.779+6235.000j;
	constant_power_A 13428.207+8185.119j;
	constant_power_B 13903.975+8434.254j;
	constant_power_C 13362.894+8138.445j;
	load_class "C";
}

object load {
	name R5-12-47-4_load_2;
	parent R5-12-47-4_meter_2;
	phases "ABCN";
	nominal_voltage 7199.558;
	voltage_A 7199.558+0.0j;
	voltage_B -3599.779-6235.000j;
	voltage_C -3599.779+6235.000j;
	constant_power_A 17234.920+10505.489j;
	constant_power_B 17845.562+10825.250j;
	constant_power_C 17151.092+10445.582j;
	load_class "C";
}

object load {
	name R5-12-47-4_load_3;
	parent R5-12-47-4_meter_3;
	phases "ABCN";
	nominal_voltage 7199.558;
	voltage_A 7199.558+0.0j;
	voltage_B -3599.779-6235.000j;
	voltage_C -3599.779+6235.000j;
	constant_power_A 0.000+0.000j;
	constant_power_B 0.000+0.000j;
	constant_power_C 0.000+0.000j;
	load_class "C";
}

object load {
	name R5-12-47-4_load_4;
	parent R5-12-47-4_meter_4;
	phases "ABCN";
	nominal_voltage 7199.558;
	voltage_A 7199.558+0.0j;
	voltage_B -3599.779-6235.000j;
	voltage_C -3599.779+6235.000j;
	constant_power_A 0.000+0.000j;
	constant_power_B 0.000+0.000j;
	constant_power_C 0.000+0.000j;
	load_class "C";
}

object load {
	name R5-12-47-4_load_5;
	parent R5-12-47-4_meter_5;
	phases "ABCN";
	nominal_voltage 7199.558;
	voltage_A 7199.558+0.0j;
	voltage_B -3599.779-6235.000j;
	voltage_C -3599.779+6235.000j;
	constant_power_A 0.000+0.000j;
	constant_power_B 0.000+0.000j;
	constant_power_C 0.000+0.000j;
	load_class "C";
}

object load {
	name R5-12-47-4_load_6;
	parent R5-12-47-4_meter_6;
	phases "ABCN";
	nominal_voltage 7199.558;
	voltage_A 7199.558+0.0j;
	voltage_B -3599.779-6235.000j;
	voltage_C -3599.779+6235.000j;
	constant_power_A 0.000+0.000j;
	constant_power_B 0.000+0.000j;
	constant_power_C 0.000+0.000j;
	load_class "C";
}

object load {
	name R5-12-47-4_load_7;
	parent R5-12-47-4_meter_7;
	phases "ABCN";
	nominal_voltage 7199.558;
	voltage_A 7199.558+0.0j;
	voltage_B -3599.779-6235.000j;
	voltage_C -3599.779+6235.000j;
	constant_power_A 5595.086+3410.466j;
	constant_power_B 5793.323+3514.273j;
	constant_power_C 5567.873+3391.019j;
	load_class "C";
}

object load {
	name R5-12-47-4_load_8;
	parent R5-12-47-4_meter_8;
	phases "ABCN";
	nominal_voltage 7199.558;
	voltage_A 7199.558+0.0j;
	voltage_B -3599.779-6235.000j;
	voltage_C -3599.779+6235.000j;
	constant_power_A 39766.202+24239.357j;
	constant_power_B 41175.137+24977.144j;
	constant_power_C 39572.784+24101.135j;
	load_class "C";
}

object load {
	name R5-12-47-4_load_9;
	parent R5-12-47-4_meter_9;
	phases "ABCN";
	nominal_voltage 7199.558;
	voltage_A 7199.558+0.0j;
	voltage_B -3599.779-6235.000j;
	voltage_C -3599.779+6235.000j;
	constant_power_A 8392.629+5115.700j;
	constant_power_B 8689.984+5271.409j;
	constant_power_C 8351.809+5086.528j;
	load_class "C";
}

object load {
	name R5-12-47-4_load_10;
	parent R5-12-47-4_meter_10;
	phases "ABCN";
	nominal_voltage 7199.558;
	voltage_A 7199.558+0.0j;
	voltage_B -3599.779-6235.000j;
	voltage_C -3599.779+6235.000j;
	constant_power_A 0.000+0.000j;
	constant_power_B 0.000+0.000j;
	constant_power_C 0.000+0.000j;
	load_class "C";
}

object load {
	name R5-12-47-4_load_11;
	parent R5-12-47-4_meter_11;
	phases "ABCN";
	nominal_voltage 7199.558;
	voltage_A 7199.558+0.0j;
	voltage_B -3599.779-6235.000j;
	voltage_C -3599.779+6235.000j;
	constant_power_A 0.000+0.000j;
	constant_power_B 0.000+0.000j;
	constant_power_C 0.000+0.000j;
	load_class "C";
}

object load {
	name R5-12-47-4_load_12;
	parent R5-12-47-4_meter_12;
	phases "ABCN";
	nominal_voltage 7199.558;
	voltage_A 7199.558+0.0j;
	voltage_B -3599.779-6235.000j;
	voltage_C -3599.779+6235.000j;
	constant_power_A 0.000+0.000j;
	constant_power_B 0.000+0.000j;
	constant_power_C 0.000+0.000j;
	load_class "C";
}

object load {
	name R5-12-47-4_load_13;
	parent R5-12-47-4_meter_13;
	phases "ABCN";
	nominal_voltage 7199.558;
	voltage_A 7199.558+0.0j;
	voltage_B -3599.779-6235.000j;
	voltage_C -3599.779+6235.000j;
	constant_power_A 41256.094+25147.516j;
	constant_power_B 42717.816+25912.945j;
	constant_power_C 41055.429+25004.115j;
	load_class "C";
}

object load {
	name R5-12-47-4_load_14;
	parent R5-12-47-4_meter_14;
	phases "ABCN";
	nominal_voltage 7199.558;
	voltage_A 7199.558+0.0j;
	voltage_B -3599.779-6235.000j;
	voltage_C -3599.779+6235.000j;
	constant_power_A 37375.177+22781.916j;
	constant_power_B 38699.396+23475.342j;
	constant_power_C 37193.388+22652.004j;
	load_class "C";
}

object load {
	name R5-12-47-4_load_15;
	parent R5-12-47-4_meter_15;
	phases "ABCN";
	nominal_voltage 7199.558;
	voltage_A 7199.558+0.0j;
	voltage_B -3599.779-6235.000j;
	voltage_C -3599.779+6235.000j;
	constant_power_A 43011.338+26217.419j;
	constant_power_B 44535.249+27015.413j;
	constant_power_C 42802.136+26067.917j;
	load_class "C";
}

object load {
	name R5-12-47-4_load_16;
	parent R5-12-47-4_meter_16;
	phases "ABCN";
	nominal_voltage 7199.558;
	voltage_A 7199.558+0.0j;
	voltage_B -3599.779-6235.000j;
	voltage_C -3599.779+6235.000j;
	constant_power_A 17078.229+10409.978j;
	constant_power_B 17683.318+10726.832j;
	constant_power_C 16995.162+10350.616j;
	load_class "C";
}

object load {
	name R5-12-47-4_load_17;
	parent R5-12-47-4_meter_17;
	phases "ABCN";
	nominal_voltage 7199.558;
	voltage_A 7199.558+0.0j;
	voltage_B -3599.779-6235.000j;
	voltage_C -3599.779+6235.000j;
	constant_power_A 16785.259+10231.399j;
	constant_power_B 17379.968+10542.818j;
	constant_power_C 16703.618+10173.056j;
	load_class "C";
}

object load {
	name R5-12-47-4_load_18;
	parent R5-12-47-4_meter_18;
	phases "ABCN";
	nominal_voltage 7199.558;
	voltage_A 7199.558+0.0j;
	voltage_B -3599.779-6235.000j;
	voltage_C -3599.779+6235.000j;
	constant_power_A 56355.249+34351.156j;
	constant_power_B 58351.941+35396.722j;
	constant_power_C 56081.144+34155.272j;
	load_class "C";
}

object load {
	name R5-12-47-4_load_19;
	parent R5-12-47-4_meter_19;
	phases "ABCN";
	nominal_voltage 7199.558;
	voltage_A 7199.558+0.0j;
	voltage_B -3599.779-6235.000j;
	voltage_C -3599.779+6235.000j;
	constant_power_A 18366.033+11194.955j;
	constant_power_B 19016.750+11535.702j;
	constant_power_C 18276.703+11131.117j;
	load_class "C";
}

object load {
	name R5-12-47-4_load_20;
	parent R5-12-47-4_meter_20;
	phases "ABCN";
	nominal_voltage 7199.558;
	voltage_A 7199.558+0.0j;
	voltage_B -3599.779-6235.000j;
	voltage_C -3599.779+6235.000j;
	constant_power_A 8253.818+5031.087j;
	constant_power_B 8546.254+5184.221j;
	constant_power_C 8213.672+5002.398j;
	load_class "C";
}

object load {
	name R5-12-47-4_load_21;
	parent R5-12-47-4_meter_21;
	phases "ABCN";
	nominal_voltage 7199.558;
	voltage_A 7199.558+0.0j;
	voltage_B -3599.779-6235.000j;
	voltage_C -3599.779+6235.000j;
	constant_power_A 47346.175+28859.705j;
	constant_power_B 49023.672+29738.124j;
	constant_power_C 47115.889+28695.135j;
	load_class "C";
}

object load {
	name R5-12-47-4_load_22;
	parent R5-12-47-4_meter_22;
	phases "ABCN";
	nominal_voltage 7199.558;
	voltage_A 7199.558+0.0j;
	voltage_B -3599.779-6235.000j;
	voltage_C -3599.779+6235.000j;
	constant_power_A 31573.823+19245.720j;
	constant_power_B 32692.498+19831.513j;
	constant_power_C 31420.252+19135.973j;
	load_class "C";
}

object load {
	name R5-12-47-4_load_23;
	parent R5-12-47-4_meter_23;
	phases "ABCN";
	nominal_voltage 7199.558;
	voltage_A 7199.558+0.0j;
	voltage_B -3599.779-6235.000j;
	voltage_C -3599.779+6235.000j;
	constant_power_A 69118.558+42130.989j;
	constant_power_B 71567.460+43413.354j;
	constant_power_C 68782.374+41890.741j;
	load_class "C";
}

object load {
	name R5-12-47-4_load_24;
	parent R5-12-47-4_meter_24;
	phases "ABCN";
	nominal_voltage 7199.558;
	voltage_A 7199.558+0.0j;
	voltage_B -3599.779-6235.000j;
	voltage_C -3599.779+6235.000j;
	constant_power_A 5444.137+3318.456j;
	constant_power_B 5637.026+3419.462j;
	constant_power_C 5417.658+3299.533j;
	load_class "C";
}


object meter:136 {
	name R5-12-47-4_meter_1;
	phases "ABCN";
	nominal_voltage 7199.558;
	voltage_A 7199.558+0.0j;
	voltage_B -3599.779-6235.000j;
	voltage_C -3599.779+6235.000j;
}

object meter:138 {
	name R5-12-47-4_meter_2;
	phases "ABCN";
	nominal_voltage 7199.558;
	voltage_A 7199.558+0.0j;
	voltage_B -3599.779-6235.000j;
	voltage_C -3599.779+6235.000j;
}

object meter:164 {
	name R5-12-47-4_meter_3;
	phases "ABCN";