//*********************************************
// $Id: R5-12.47-5.glm 1132 2008-11-18 22:36:10Z dchassin $ 
//*********************************************

clock { 
	 timezone EST+5EDT;
	 timestamp '2000-01-01 0:00:00';
}

//*********************************************
// modules
module powerflow;


object triplex_line_conductor: {
	name 1/0 AA triplex;
	resistance 0.97;
	geometric_mean_radius 0.0111;
}

object triplex_line_configuration:1 {
	conductor_1 1/0 AA triplex;
	conductor_2 1/0 AA triplex;
	conductor_N 1/0 AA triplex;
	insulation_thickness 0.08;
	diameter 0.368;
}

object transformer:109  {
	phases "AS";
	from N26495;
	to N26495_RA_M;
	configuration transformer_configuration:51;
}

object triplex_meter:110 {
	name N26495_RA_M;
	phases "AS";
	nominal_voltage 120;
	voltage_1 120;
	voltage_2 120;
	voltage_N 0;
}

object triplex_node:111 {
	name N26495_RA_TX;
	parent N26495_RA_M;
	phases AS;
	nominal_voltage 120;
	latitude 48N22'53.384";
	longitude 116W11'57.848";
	power_1 13.1650662390953+6.10362411940051j;
	voltage_1 120;
	voltage_2 120;
	voltage_N 0;
}

object transformer:112  {
	phases "BS";
	from N33398;
	to N33398_RB_M;
	configuration transformer_configuration:65;
}

object triplex_meter:113 {
	name N33398_RB_M;
	phases "BS";
	nominal_voltage 120;
	voltage_1 -60.000-103.923j;
	voltage_2 -60.000-103.923j;
	voltage_N 0;
}

object triplex_node:114 {
	name N33398_RB_TX;
	parent N33398_RB_M;
	phases BS;
	nominal_voltage 120;
	latitude 48N22'53.230";
	longitude 116W11'42.979";
	power_1 10.3443961569091+4.86040913987211j;
	voltage_1 -60.000-103.923j;
	voltage_2 -60.000-103.923j;
	voltage_N 0;
}

object transformer:115  {
	phases "AS";
	from N33394;
	to N33394_RA_M;
	configuration transformer_configuration:51;
}

object triplex_meter:116 {
	name N33394_RA_M;
	phases "AS";
	nominal_voltage 120;
	voltage_1 120;
	voltage_2 120;
	voltage_N 0;
}

object triplex_node:117 {
	name N33394_RA_TX;
	parent N33394_RA_M;
	phases AS;
	nominal_voltage 120;
	latitude 48N22'53.078";
	longitude 116W11'6.145";
	power_1 5.72812476884004+2.65568891664232j;
	voltage_1 120;
	voltage_2 120;
	voltage_N 0;
}

object transformer:118  {
	phases "AS";
	from N45582;
	to N45582_RA_M;
	configuration transformer_configuration:52;
}

object triplex_meter:119 {
	name N45582_RA_M;
	phases "AS";
	nominal_voltage 120;
	voltage_1 120;
	voltage_2 120;
	voltage_N 0;
}

object triplex_node:120 {
	name N45582_RA_TX;
	parent N45582_RA_M;
	phases AS;
	nominal_voltage 120;
	latitude 48N22'52.959";
	longitude 116W9'40.839";
	power_1 1.6887142370515+0.782926326449751j;
	voltage_1 120;
	voltage_2 120;
	voltage_N 0;
}

object transformer:121  {
	phases "BS";
	from N45582;
	to N45582_RB_M;
	configuration transformer_configuration:66;
}

object triplex_meter:122 {
	name N45582_RB_M;
	phases "BS";
	nominal_voltage 120;
	voltage_1 -60.000-103.923j;
	voltage_2 -60.000-103.923j;
	voltage_N 0;
}

object triplex_node:123 {
	name N45582_RB_TX;
	parent N45582_RB_M;
	phases BS;
	nominal_voltage 120;
	latitude 48N22'52.959";
	longitude 116W9'40.839";
	power_1 5.9951161276147+2.81686014140045j;
	voltage_1 -60.000-103.923j;
	voltage_2 -60.000-103.923j;
	voltage_N 0;
}

object transformer:124  {
	phases "CS";
	from N45582;
	to N45582_RC_M;
	configuration transformer_configuration:81;
}

object triplex_meter:125 {
	name N45582_RC_M;
	phases "CS";
	nominal_voltage 120;
	voltage_1 -60.000+103.923j;
	voltage_2 -60.000+103.923j;
	voltage_N 0;
}

object triplex_node:126 {
	name N45582_RC_TX;
	parent N45582_RC_M;
	phases CS;
	nominal_voltage 120;
	latitude 48N22'52.959";
	longitude 116W9'40.839";
	power_1 1.50252236290536+0.710864169903936j;
	voltage_1 -60.000+103.923j;
	voltage_2 -60.000+103.923j;
	voltage_N 0;
}

object transformer:127  {
	phases "BS";
	from N38648;
	to N38648_RB_M;
	configuration transformer_configuration:67;
}

object triplex_meter:128 {
	name N38648_RB_M;
	phases "BS";
	nominal_voltage 120;
	voltage_1 -60.000-103.923j;
	voltage_2 -60.000-103.923j;
	voltage_N 0;
}

object triplex_node:129 {
	name N38648_RB_TX;
	parent N38648_RB_M;
	phases BS;
	nominal_voltage 120;
	latitude 48N22'52.776";
	longitude 116W10'36.852";
	power_1 18.752218174983+8.81090120951025j;
	voltage_1 -60.000-103.923j;
	voltage_2 -60.000-103.923j;
	voltage_N 0;
}

object transformer:130  {
	phases "AS";
	from N45571;
	to N45571_RA_M;
	configuration transformer_configuration:53;
}

object triplex_meter:131 {
	name N45571_RA_M;
	phases "AS";
	nominal_voltage 120;
	voltage_1 120;
	voltage_2 120;
	voltage_N 0;
}

object triplex_node:132 {
	name N45571_RA_TX;
	parent N45571_RA_M;
	phases AS;
	nominal_voltage 120;
	latitude 48N22'52.484";
	longitude 116W10'1.202";
	power_1 7.33832378298504+3.4022138000937j;
	voltage_1 120;
	voltage_2 120;
	voltage_N 0;
}

object transformer:133  {
	phases "BS";
	from N26486;
	to N26486_RB_M;
	configuration transformer_configuration:67;
}

object triplex_meter:134 {
	name N26486_RB_M;
	phases "BS";
	nominal_voltage 120;
	voltage_1 -60.000-103.923j;
	voltage_2 -60.000-103.923j;
	voltage_N 0;
}

object triplex_node:135 {
	name N26486_RB_TX;
	parent N26486_RB_M;
	phases BS;
	nominal_voltage 120;
	latitude 48N22'52.378";
	longitude 116W11'52.045";
	power_1 6.65918360362464+3.12887831828889j;
	voltage_1 -60.000-103.923j;
	voltage_2 -60.000-103.923j;
	voltage_N 0;
}

object transformer:136  {
	phases "AS";
	from N45559;
	to N45559_RA_M;
	configuration transformer_configuration:52;
}

object triplex_meter:137 {
	name N45559_RA_M;
	phases "AS";
	nominal_voltage 120;
	voltage_1 120;
	voltage_2 120;
	voltage_N 0;
}

object triplex_node:138 {
	name N45559_RA_TX;
	parent N45559_RA_M;
	phases AS;
	nominal_voltage 120;
	latitude 48N22'51.962";
	longitude 116W10'17.865";
	power_1 9.67309433281478+4.48466652630087j;
	voltage_1 120;
	voltage_2 120;
	voltage_N 0;
}

object transformer:139  {
	phases "BS";
	from N45556;
	to N45556_RB_M;
	configuration transformer_configuration:67;
}

object triplex_meter:140 {
	name N45556_RB_M;
	phases "BS";
	nominal_voltage 120;
	voltage_1 -60.000-103.923j;
	voltage_2 -60.000-103.923j;
	voltage_N 0;
}

object triplex_node:141 {
	name N45556_RB_TX;
	parent N45556_RB_M;
	phases BS;
	nominal_voltage 120;
	latitude 48N22'51.887";
	longitude 116W9'48.360";
	power_1 16.771419545018+7.88020485766007j;
	voltage_1 -60.000-103.923j;
	voltage_2 -60.000-103.923j;
	voltage_N 0;
}

object transformer:142  {
	phases "BS";
	from N38618;
	to N38618_RB_M;
	configuration transformer_configuration:66;
}

object triplex_meter:143 {
	name N38618_RB_M;
	phases "BS";
	nominal_voltage 120;
	voltage_1 -60.000-103.923j;
	voltage_2 -60.000-103.923j;
	voltage_N 0;
}

object triplex_node:144 {
	name N38618_RB_TX;
	parent N38618_RB_M;
	phases BS;
	nominal_voltage 120;
	latitude 48N22'51.271";
	longitude 116W10'43.039";
	power_1 16.389748831053+7.70087338210191j;
	voltage_1 -60.000-103.923j;
	voltage_2 -60.000-103.923j;
	voltage_N 0;
}

object transformer:145  {
	phases "AS";
	from N33386;
	to N33386_RA_M;
	configuration transformer_configuration:51;
}

object triplex_meter:146 {
	name N33386_RA_M;
	phases "AS";
	nominal_voltage 120;
	voltage_1 120;
	voltage_2 120;
	voltage_N 0;
}

object triplex_node:147 {
	name N33386_RA_TX;
	parent N33386_RA_M;
	phases AS;
	nominal_voltage 120;
	latitude 48N22'51.119";
	longitude 116W11'16.660";
	power_1 23.5937263949941+10.9385881449935j;
	voltage_1 120;
	voltage_2 120;
	voltage_N 0;
}

object transformer:148  {
	phases "AS";
	from N45543;
	to N45543_RA_M;
	configuration transformer_configuration:54;
}

object triplex_meter:149 {
	name N45543_RA_M;
	phases "AS";
	nominal_voltage 120;
	voltage_1 120;
	voltage_2 120;
	voltage_N 0;
}

object triplex_node:150 {
	name N45543_RA_TX;
	parent N45543_RA_M;
	phases AS;
	nominal_voltage 120;
	latitude 48N22'50.239";
	longitude 116W10'15.698";
	power_1 1.90792773895508+0.8845586914692j;
	voltage_1 120;
	voltage_2 120;
	voltage_N 0;
}

object transformer:151  {
	phases "BS";
	from N38582;
	to N38582_RB_M;
	configuration transformer_configuration:65;
}

object triplex_meter:152 {
	name N38582_RB_M;
	phases "BS";
	nominal_voltage 120;
	voltage_1 -60.000-103.923j;
	voltage_2 -60.000-103.923j;
	voltage_N 0;
}

object triplex_node:153 {
	name N38582_RB_TX;
	parent N38582_RB_M;
	phases BS;
	nominal_voltage 120;
	latitude 48N22'50.270";
	longitude 116W10'54.639";
	power_1 20.6968528409896+9.72460559215397j;
	voltage_1 -60.000-103.923j;
	voltage_2 -60.000-103.923j;
	voltage_N 0;
}

object transformer:154  {
	phases "BS";
	from N38592;
	to N38592_RB_M;
	configuration transformer_configuration:66;
}

object triplex_meter:155 {
	name N38592_RB_M;
	phases "BS";
	nominal_voltage 120;
	voltage_1 -60.000-103.923j;
	voltage_2 -60.000-103.923j;
	voltage_N 0;
}

object triplex_node:156 {
	name N38592_RB_TX;
	parent N38592_RB_M;
	phases BS;
	nominal_voltage 120;
	latitude 48N22'50.247";
	longitude 116W10'49.909";
	power_1 27.826962767016+13.0747529499198j;
	voltage_1 -60.000-103.923j;
	voltage_2 -60.000-103.923j;
	voltage_N 0;
}

object transformer:157  {
	phases "AS";
	from N45537;
	to N45537_RA_M;
	configuration transformer_configuration:53;
}

object triplex_meter:158 {
	name N45537_RA_M;
	phases "AS";
	nominal_voltage 120;
	voltage_1 120;
	voltage_2 120;
	voltage_N 0;
}

object triplex_node:159 {
	name N45537_RA_TX;
	parent N45537_RA_M;
	phases AS;
	nominal_voltage 120;
	latitude 48N22'50.139";
	longitude 116W10'1.290";
	power_1 15.2579726090731+7.07394311115066j;
	voltage_1 120;
	voltage_2 120;
	voltage_N 0;
}

object transformer:160  {
	phases "CS";
	from N45537;
	to N45537_RC_M;
	configuration transformer_configuration:82;
}

object triplex_meter:161 {
	name N45537_RC_M;
	phases "CS";
	nominal_voltage 120;
	voltage_1 -60.000+103.923j;
	voltage_2 -60.000+103.923j;
	voltage_N 0;
}

object triplex_node:162 {
	name N45537_RC_TX;
	parent N45537_RC_M;
	phases CS;
	nominal_voltage 120;
	latitude 48N22'50.139";
	longitude 116W10'1.290";
	power_1 3.62018148557136+1.71275807280905j;
	voltage_1 -60.000+103.923j;
	voltage_2 -60.000+103.923j;
	voltage_N 0;
}

object transformer:163  {
	phases "BS";
	from N45527;
	to N45527_RB_M;
	configuration transformer_configuration:67;
}

object triplex_meter:164 {
	name N45527_RB_M;
	phases "BS";
	nominal_voltage 120;
	voltage_1 -60.000-103.923j;
	voltage_2 -60.000-103.923j;
	voltage_N 0;
}

object triplex_node:165 {
	name N45527_RB_TX;
	parent N45527_RB_M;
	phases BS;
	nominal_voltage 120;
	latitude 48N22'49.739";
	longitude 116W9'48.300";
	power_1 8.35994129339089+3.9279948732486j;
	voltage_1 -60.000-103.923j;
	voltage_2 -60.000-103.923j;
	voltage_N 0;
}

object transformer:166  {
	phases "AS";
	from N33377;
	to N33377_RA_M;
	configuration transformer_configuration:51;
}

object triplex_meter:167 {
	name N33377_RA_M;
	phases "AS";
	nominal_voltage 120;
	voltage_1 120;
	voltage_2 120;
	voltage_N 0;
}

object triplex_node:168 {
	name N33377_RA_TX;
	parent N33377_RA_M;
	phases AS;
	nominal_voltage 120;
	latitude 48N22'48.556";
	longitude 116W11'34.669";
	power_1 9.26897678007304+4.29730843807016j;
	voltage_1 120;
	voltage_2 120;
	voltage_N 0;
}

object transformer:169  {
	phases "AS";
	from N26460;
	to N26460_RA_M;
	configuration transformer_configuration:51;
}

object triplex_meter:170 {
	name N26460_RA_M;
	phases "AS";
	nominal_voltage 120;
	voltage_1 120;
	voltage_2 120;
	voltage_N 0;
}

object triplex_node:171 {
	name N26460_RA_TX;
	parent N26460_RA_M;
	phases AS;
	nominal_voltage 120;
	latitude 48N22'48.328";
	longitude 116W11'48.236";
	power_1 9.40618369828603+4.36092068582828j;
	voltage_1 120;
	voltage_2 120;
	voltage_N 0;
}

object transformer:172  {
	phases "BS";
	from N38542;
	to N38542_RB_M;
	configuration transformer_configuration:65;
}

object triplex_meter:173 {
	name N38542_RB_M;
	phases "BS";
	nominal_voltage 120;
	voltage_1 -60.000-103.923j;
	voltage_2 -60.000-103.923j;
	voltage_N 0;
}

object triplex_node:174 {
	name N38542_RB_TX;
	parent N38542_RB_M;
	phases BS;
	nominal_voltage 120;
	latitude 48N22'48.105";
	longitude 116W10'45.399";
	power_1 15.7070885667577+7.38011921359567j;
	voltage_1 -60.000-103.923j;
	voltage_2 -60.000-103.923j;
	voltage_N 0;
}

object transformer:175  {
	phases "AS";
	from N33367;
	to N33367_RA_M;
	configuration transformer_configuration:53;
}

object triplex_meter:176 {
	name N33367_RA_M;
	phases "AS";
	nominal_voltage 120;
	voltage_1 120;
	voltage_2 120;
	voltage_N 0;
}

object triplex_node:177 {
	name N33367_RA_TX;
	parent N33367_RA_M;
	phases AS;
	nominal_voltage 120;
	latitude 48N22'48.003";
	longitude 116W11'43.038";
	power_1 8.87815095134492+4.11611269538368j;
	voltage_1 120;
	voltage_2 120;
	voltage_N 0;
}

object transformer:178  {
	phases "AS";
	from N45506;
	to N45506_RA_M;
	configuration transformer_configuration:55;
}

object triplex_meter:179 {
	name N45506_RA_M;
	phases "AS";
	nominal_voltage 120;
	voltage_1 120;
	voltage_2 120;
	voltage_N 0;
}

object triplex_node:180 {
	name N45506_RA_TX;
	parent N45506_RA_M;
	phases AS;
	nominal_voltage 120;
	latitude 48N22'47.906";
	longitude 116W9'53.053";
	power_1 10.1192314383858+4.69150583486708j;
	voltage_1 120;
	voltage_2 120;
	voltage_N 0;
}

object transformer:181  {
	phases "CS";
	from N45506;
	to N45506_RC_M;
	configuration transformer_configuration:84;
}

object triplex_meter:182 {
	name N45506_RC_M;
	phases "CS";
	nominal_voltage 120;
	voltage_1 -60.000+103.923j;
	voltage_2 -60.000+103.923j;
	voltage_N 0;
}

object triplex_node:183 {
	name N45506_RC_TX;
	parent N45506_RC_M;
	phases CS;
	nominal_voltage 120;
	latitude 48N22'47.906";
	longitude 116W9'53.053";
	power_1 4.50175974063454+2.1298449727864j;
	voltage_1 -60.000+103.923j;
	voltage_2 -60.000+103.923j;
	voltage_N 0;
}

object transformer:184  {
	phases "AS";
	from N26452;
	to N26452_RA_M;
	configuration transformer_configuration:51;
}

object triplex_meter:185 {
	name N26452_RA_M;
	phases "AS";
	nominal_voltage 120;
	voltage_1 120;
	voltage_2 120;
	voltage_N 0;
}

object triplex_node:186 {
	name N26452_RA_TX;
	parent N26452_RA_M;
	phases AS;
	nominal_voltage 120;
	latitude 48N22'47.068";
	longitude 116W11'56.790";
	power_1 12.8798794038541+5.97140501662497j;
	voltage_1 120;
	voltage_2 120;
	voltage_N 0;
}

object transformer:187  {
	phases "AS";
	from N33357;
	to N33357_RA_M;
	configuration transformer_configuration:53;
}

object triplex_meter:188 {
	name N33357_RA_M;
	phases "AS";
	nominal_voltage 120;
	voltage_1 120;
	voltage_2 120;
	voltage_N 0;
}

object triplex_node:189 {
	name N33357_RA_TX;
	parent N33357_RA_M;
	phases AS;
	nominal_voltage 120;
	latitude 48N22'47.064";
	longitude 116W11'32.975";
	power_1 13.4119851911934+6.21810136123063j;
	voltage_1 120;
	voltage_2 120;
	voltage_N 0;
}

object transformer:190  {
	phases "BS";
	from N38511;
	to N38511_RB_M;
	configuration transformer_configuration:66;
}

object triplex_meter:191 {
	name N38511_RB_M;
	phases "BS";
	nominal_voltage 120;
	voltage_1 -60.000-103.923j;
	voltage_2 -60.000-103.923j;
	voltage_N 0;
}

object triplex_node:192 {
	name N38511_RB_TX;
	parent N38511_RB_M;
	phases BS;
	nominal_voltage 120;
	latitude 48N22'46.603";
	longitude 116W10'36.647";
	power_1 31.2348481873061+14.6759790817469j;
	voltage_1 -60.000-103.923j;
	voltage_2 -60.000-103.923j;
	voltage_N 0;
}

object transformer:193  {
	phases "AS";
	from N26442;
	to N26442_RA_M;
	configuration transformer_configuration:51;
}

object triplex_meter:194 {
	name N26442_RA_M;
	phases "AS";
	nominal_voltage 120;
	voltage_1 120;
	voltage_2 120;
	voltage_N 0;
}

object triplex_node:195 {
	name N26442_RA_TX;
	parent N26442_RA_M;
	phases AS;
	nominal_voltage 120;
	latitude 48N22'45.917";
	longitude 116W12'0.979";
	power_1 16.7596219404111+7.77014189292499j;
	voltage_1 120;
	voltage_2 120;
	voltage_N 0;
}

object transformer:196  {
	phases "BS";
	from N38491;
	to N38491_RB_M;
	configuration transformer_configuration:66;
}

object triplex_meter:197 {
	name N38491_RB_M;
	phases "BS";
	nominal_voltage 120;
	voltage_1 -60.000-103.923j;
	voltage_2 -60.000-103.923j;
	voltage_N 0;
}

object triplex_node:198 {
	name N38491_RB_TX;
	parent N38491_RB_M;
	phases BS;
	nominal_voltage 120;
	latitude 48N22'46.057";
	longitude 116W10'45.364";
	power_1 12.6720623448903+5.95408438616272j;
	voltage_1 -60.000-103.923j;
	voltage_2 -60.000-103.923j;
	voltage_N 0;
}

object transformer:199  {
	phases "BS";
	from N38487;
	to N38487_RB_M;
	configuration transformer_configuration:65;
}

object triplex_meter:200 {
	name N38487_RB_M;
	phases "BS";
	nominal_voltage 120;
	voltage_1 -60.000-103.923j;
	voltage_2 -60.000-103.923j;
	voltage_N 0;
}

object triplex_node:201 {
	name N38487_RB_TX;
	parent N38487_RB_M;
	phases BS;
	nominal_voltage 120;
	latitude 48N22'45.922";
	longitude 116W10'49.763";
	power_1 16.9917753946669+7.98374106890066j;
	voltage_1 -60.000-103.923j;
	voltage_2 -60.000-103.923j;
	voltage_N 0;
}

object transformer:202  {
	phases "AS";
	from N33342;
	to N33342_RA_M;
	configuration transformer_configuration:53;
}

object triplex_meter:203 {
	name N33342_RA_M;
	phases "AS";
	nominal_voltage 120;
	voltage_1 120;
	voltage_2 120;
	voltage_N 0;
}

object triplex_node:204 {
	name N33342_RA_TX;
	parent N33342_RA_M;
	phases AS;
	nominal_voltage 120;
	latitude 48N22'45.591";
	longitude 116W11'25.343";
	power_1 18.2549426103796+8.46340656335667j;
	voltage_1 120;
	voltage_2 120;
	voltage_N 0;
}

object transformer:205  {
	phases "AS";
	from N33337;
	to N33337_RA_M;
	configuration transformer_configuration:54;
}

object triplex_meter:206 {
	name N33337_RA_M;
	phases "AS";
	nominal_voltage 120;
	voltage_1 120;
	voltage_2 120;
	voltage_N 0;
}

object triplex_node:207 {
	name N33337_RA_TX;
	parent N33337_RA_M;
	phases AS;
	nominal_voltage 120;
	latitude 48N22'45.586";
	longitude 116W11'38.668";
	power_1 2.29124990753602+1.06227556665693j;
	voltage_1 120;
	voltage_2 120;
	voltage_N 0;
}

object transformer:208  {
	phases "AS";
	from N26431;
	to N26431_RA_M;
	configuration transformer_configuration:51;
}

object triplex_meter:209 {
	name N26431_RA_M;
	phases "AS";
	nominal_voltage 120;
	voltage_1 120;
	voltage_2 120;
	voltage_N 0;
}

object triplex_node:210 {
	name N26431_RA_TX;
	parent N26431_RA_M;
	phases AS;
	nominal_voltage 120;
	latitude 48N22'45.546";
	longitude 116W11'47.265";
	power_1 9.9517960601427+4.61387898555806j;
	voltage_1 120;
	voltage_2 120;
	voltage_N 0;
}

object transformer:211  {
	phases "AS";
	from N45478;
	to N45478_RA_M;
	configuration transformer_configuration:55;
}

object triplex_meter:212 {
	name N45478_RA_M;
	phases "AS";
	nominal_voltage 120;
	voltage_1 120;
	voltage_2 120;
	voltage_N 0;
}

object triplex_node:213 {
	name N45478_RA_TX;
	parent N45478_RA_M;
	phases AS;
	nominal_voltage 120;
	latitude 48N22'45.779";
	longitude 116W9'53.114";
	power_1 12.6786029518517+5.87808867587909j;
	voltage_1 120;
	voltage_2 120;
	voltage_N 0;
}

object transformer:214  {
	phases "CS";
	from N45478;
	to N45478_RC_M;
	configuration transformer_configuration:84;
}

object triplex_meter:215 {
	name N45478_RC_M;
	phases "CS";
	nominal_voltage 120;
	voltage_1 -60.000+103.923j;
	voltage_2 -60.000+103.923j;
	voltage_N 0;
}

object triplex_node:216 {
	name N45478_RC_TX;
	parent N45478_RC_M;
	phases CS;
	nominal_voltage 120;
	latitude 48N22'45.779";
	longitude 116W9'53.114";
	power_1 5.64035170888837+2.66852862525929j;
	voltage_1 -60.000+103.923j;
	voltage_2 -60.000+103.923j;
	voltage_N 0;
}

object transformer:217  {
	phases "AS";
	from N45464;
	to N45464_RA_M;
	configuration transformer_configuration:55;
}

object triplex_meter:218 {
	name N45464_RA_M;
	phases "AS";
	nominal_voltage 120;
	voltage_1 120;
	voltage_2 120;
	voltage_N 0;
}

object triplex_node:219 {
	name N45464_RA_TX;
	parent N45464_RA_M;
	phases AS;
	nominal_voltage 120;
	latitude 48N22'44.815";
	longitude 116W10'0.957";
	power_1 10.6035705078402+4.91605644271065j;
	voltage_1 120;
	voltage_2 120;
	voltage_N 0;
}

object transformer:220  {
	phases "CS";
	from N45464;
	to N45464_RC_M;
	configuration transformer_configuration:84;
}

object triplex_meter:221 {
	name N45464_RC_M;
	phases "CS";
	nominal_voltage 120;
	voltage_1 -60.000+103.923j;
	voltage_2 -60.000+103.923j;
	voltage_N 0;
}

object triplex_node:222 {
	name N45464_RC_TX;
	parent N45464_RC_M;
	phases CS;
	nominal_voltage 120;
	latitude 48N22'44.815";
	longitude 116W10'0.957";
	power_1 2.8303370928804+1.33907173547038j;
	voltage_1 -60.000+103.923j;
	voltage_2 -60.000+103.923j;
	voltage_N 0;
}

object transformer:223  {
	phases "AS";
	from N45451;
	to N45451_RA_M;
	configuration transformer_configuration:51;
}

object triplex_meter:224 {
	name N45451_RA_M;
	phases "AS";
	nominal_voltage 120;
	voltage_1 120;
	voltage_2 120;
	voltage_N 0;
}

object triplex_node:225 {
	name N45451_RA_TX;
	parent N45451_RA_M;
	phases AS;
	nominal_voltage 120;
	latitude 48N22'44.648";
	longitude 116W10'7.758";
	power_1 15.1932646184969+7.04394301507625j;
	voltage_1 120;
	voltage_2 120;
	voltage_N 0;
}

object transformer:226  {
	phases "AS";
	from N45449;
	to N45449_RA_M;
	configuration transformer_configuration:51;
}

object triplex_meter:227 {
	name N45449_RA_M;
	phases "AS";
	nominal_voltage 120;
	voltage_1 120;
	voltage_2 120;
	voltage_N 0;
}

object triplex_node:228 {
	name N45449_RA_TX;
	parent N45449_RA_M;
	phases AS;
	nominal_voltage 120;
	latitude 48N22'44.579";
	longitude 116W10'11.149";
	power_1 5.84201730274388+2.70849208559948j;
	voltage_1 120;
	voltage_2 120;
	voltage_N 0;
}

object transformer:229  {
	phases "CS";
	from N45449;
	to N45449_RC_M;
	configuration transformer_configuration:80;
}

object triplex_meter:230 {
	name N45449_RC_M;
	phases "CS";
	nominal_voltage 120;
	voltage_1 -60.000+103.923j;
	voltage_2 -60.000+103.923j;
	voltage_N 0;
}

object triplex_node:231 {
	name N45449_RC_TX;
	parent N45449_RC_M;
	phases CS;
	nominal_voltage 120;
	latitude 48N22'44.579";
	longitude 116W10'11.149";
	power_1 2.07915855726514+0.983678751410399j;
	voltage_1 -60.000+103.923j;
	voltage_2 -60.000+103.923j;
	voltage_N 0;
}

object transformer:232  {
	phases "BS";
	from N38468;
	to N38468_RB_M;
	configuration transformer_configuration:68;
}

object triplex_meter:233 {
	name N38468_RB_M;
	phases "BS";
	nominal_voltage 120;
	voltage_1 -60.000-103.923j;
	voltage_2 -60.000-103.923j;
	voltage_N 0;
}

object triplex_node:234 {
	name N38468_RB_TX;
	parent N38468_RB_M;
	phases BS;
	nominal_voltage 120;
	latitude 48N22'44.612";
	longitude 116W10'38.234";
	power_1 6.76170299662864+3.17704799269158j;
	voltage_1 -60.000-103.923j;
	voltage_2 -60.000-103.923j;
	voltage_N 0;
}

object transformer:235  {
	phases "BS";
	from N38452;
	to N38452_RB_M;
	configuration transformer_configuration:67;
}

object triplex_meter:236 {
	name N38452_RB_M;
	phases "BS";
	nominal_voltage 120;
	voltage_1 -60.000-103.923j;
	voltage_2 -60.000-103.923j;
	voltage_N 0;
}

object triplex_node:237 {
	name N38452_RB_TX;
	parent N38452_RB_M;
	phases BS;
	nominal_voltage 120;
	latitude 48N22'43.930";
	longitude 116W10'45.291";
	power_1 17.7746436183522+8.35157886358665j;
	voltage_1 -60.000-103.923j;
	voltage_2 -60.000-103.923j;
	voltage_N 0;
}

object transformer:238  {
	phases "AS";
	from N33323;
	to N33323_RA_M;
	configuration transformer_configuration:53;
}

object triplex_meter:239 {
	name N33323_RA_M;
	phases "AS";
	nominal_voltage 120;
	voltage_1 120;
	voltage_2 120;
	voltage_N 0;
}

object triplex_node:240 {
	name N33323_RA_TX;
	parent N33323_RA_M;
	phases AS;
	nominal_voltage 120;
	latitude 48N22'43.777";
	longitude 116W11'42.885";
	power_1 24.4285827083032+11.3256465188447j;
	voltage_1 120;
	voltage_2 120;
	voltage_N 0;
}

object transformer:241  {
	phases "AS";
	from N26411;
	to N26411_RA_M;
	configuration transformer_configuration:55;
}

object triplex_meter:242 {
	name N26411_RA_M;
	phases "AS";
	nominal_voltage 120;
	voltage_1 120;
	voltage_2 120;
	voltage_N 0;
}

object triplex_node:243 {
	name N26411_RA_TX;
	parent N26411_RA_M;
	phases AS;
	nominal_voltage 120;
	latitude 48N22'43.318";
	longitude 116W11'58.798";
	power_1 11.7033292209591+5.42592959374578j;
	voltage_1 120;
	voltage_2 120;
	voltage_N 0;
}

object transformer:244  {
	phases "AS";
	from N26410;
	to N26410_RA_M;
	configuration transformer_configuration:51;
}

object triplex_meter:245 {
	name N26410_RA_M;
	phases "AS";
	nominal_voltage 120;
	voltage_1 120;
	voltage_2 120;
	voltage_N 0;
}

object triplex_node:246 {
	name N26410_RA_TX;
	parent N26410_RA_M;
	phases AS;
	nominal_voltage 120;
	latitude 48N22'43.262";
	longitude 116W11'47.730";
	power_1 9.01278548328671+4.17853232636311j;
	voltage_1 120;
	voltage_2 120;
	voltage_N 0;
}

object transformer:247  {
	phases "AS";
	from N33314;
	to N33314_RA_M;
	configuration transformer_configuration:51;
}

object triplex_meter:248 {
	name N33314_RA_M;
	phases "AS";
	nominal_voltage 120;
	voltage_1 120;
	voltage_2 120;
	voltage_N 0;
}

object triplex_node:249 {
	name N33314_RA_TX;
	parent N33314_RA_M;
	phases AS;
	nominal_voltage 120;
	latitude 48N22'43.074";
	longitude 116W11'16.407";
	power_1 5.16562956116468+2.39490334562719j;
	voltage_1 120;
	voltage_2 120;
	voltage_N 0;
}

object transformer:250  {
	phases "BS";
	from N38430;
	to N38430_RB_M;
	configuration transformer_configuration:69;
}

object triplex_meter:251 {
	name N38430_RB_M;
	phases "BS";
	nominal_voltage 120;
	voltage_1 -60.000-103.923j;
	voltage_2 -60.000-103.923j;
	voltage_N 0;
}

object triplex_node:252 {
	name N38430_RB_TX;
	parent N38430_RB_M;
	phases BS;
	nominal_voltage 120;
	latitude 48N22'42.775";
	longitude 116W10'47.778";
	power_1 4.64533148030015+2.18265148029026j;
	voltage_1 -60.000-103.923j;
	voltage_2 -60.000-103.923j;
	voltage_N 0;
}

object transformer:253  {
	phases "AS";
	from N33305;
	to N33305_RA_M;
	configuration transformer_configuration:53;
}

object triplex_meter:254 {
	name N33305_RA_M;
	phases "AS";
	nominal_voltage 120;
	voltage_1 120;
	voltage_2 120;
	voltage_N 0;
}

object triplex_node:255 {
	name N33305_RA_TX;
	parent N33305_RA_M;
	phases AS;
	nominal_voltage 120;
	latitude 48N22'42.002";
	longitude 116W11'33.938";
	power_1 6.56556962173224+3.04394739631495j;
	voltage_1 120;
	voltage_2 120;
	voltage_N 0;
}

object transformer:256  {
	phases "BS";
	from N38414;
	to N38414_RB_M;
	configuration transformer_configuration:67;
}

object triplex_meter:257 {
	name N38414_RB_M;
	phases "BS";
	nominal_voltage 120;
	voltage_1 -60.000-103.923j;
	voltage_2 -60.000-103.923j;
	voltage_N 0;
}

object triplex_node:258 {
	name N38414_RB_TX;
	parent N38414_RB_M;
	phases BS;
	nominal_voltage 120;
	latitude 48N22'41.868";
	longitude 116W10'44.690";
	power_1 6.91947751508514+3.25117979312855j;
	voltage_1 -60.000-103.923j;
	voltage_2 -60.000-103.923j;
	voltage_N 0;
}

object transformer:259  {
	phases "BS";
	from N38407;
	to N38407_RB_M;
	configuration transformer_configuration:65;
}

object triplex_meter:260 {
	name N38407_RB_M;
	phases "BS";
	nominal_voltage 120;
	voltage_1 -60.000-103.923j;
	voltage_2 -60.000-103.923j;
	voltage_N 0;
}

object triplex_node:261 {
	name N38407_RB_TX;
	parent N38407_RB_M;
	phases BS;
	nominal_voltage 120;
	latitude 48N22'40.983";
	longitude 116W10'47.725";
	power_1 15.3024684778676+7.19000476434348j;
	voltage_1 -60.000-103.923j;
	voltage_2 -60.000-103.923j;
	voltage_N 0;
}

object transformer:262  {
	phases "BS";
	from N38384;
	to N38384_RB_M;
	configuration transformer_configuration:67;
}

object triplex_meter:263 {
	name N38384_RB_M;
	phases "BS";
	nominal_voltage 120;
	voltage_1 -60.000-103.923j;
	voltage_2 -60.000-103.923j;
	voltage_N 0;
}

object triplex_node:264 {
	name N38384_RB_TX;
	parent N38384_RB_M;
	phases BS;
	nominal_voltage 120;
	latitude 48N22'39.762";
	longitude 116W10'44.820";
	power_1 11.8426842095757+5.5643934841374j;
	voltage_1 -60.000-103.923j;
	voltage_2 -60.000-103.923j;
	voltage_N 0;
}

object transformer:265  {
	phases "BS";
	from N38378;
	to N38378_RB_M;
	configuration transformer_configuration:67;
}

object triplex_meter:266 {
	name N38378_RB_M;
	phases "BS";
	nominal_voltage 120;
	voltage_1 -60.000-103.923j;
	voltage_2 -60.000-103.923j;
	voltage_N 0;
}

object triplex_node:267 {
	name N38378_RB_TX;
	parent N38378_RB_M;
	phases BS;
	nominal_voltage 120;
	latitude 48N22'39.143";
	longitude 116W10'47.749";
	power_1 8.36479325172613+3.9302746102464j;
	voltage_1 -60.000-103.923j;
	voltage_2 -60.000-103.923j;
	voltage_N 0;
}

object transformer:268  {
	phases "BS";
	from N38351;
	to N38351_RB_M;
	configuration transformer_configuration:70;
}

object triplex_meter:269 {
	name N38351_RB_M;