// $Id: R5-12.47-3.glm 1132 2008-11-18 22:36:10Z dchassin $ 
//*********************************************

clock { 
	 timezone EST+5EDT;
	 timestamp '2000-01-01 0:00:00';
}

//*********************************************
// modules
module powerflow;


object fuse:4527 {
	name R5-12-47-3_fuse_1;
	phases "AN";
	from node:2900;
	to node:4066;
	current_limit 3000.0;
	status CLOSED;
}

object fuse:4553 {
	name R5-12-47-3_fuse_2;
	phases "CN";
	from node:2642;
	to node:4118;
	current_limit 3000.0;
	status CLOSED;
}

object fuse:4556 {
	name R5-12-47-3_fuse_3;
	phases "CN";
	from node:3590;
	to node:4122;
	current_limit 3000.0;
	status CLOSED;
}

object fuse:4580 {
	name R5-12-47-3_fuse_4;
	phases "CN";
	from node:3570;
	to node:4166;
	current_limit 3000.0;
	status CLOSED;
}

object fuse:4583 {
	name R5-12-47-3_fuse_5;
	phases "CN";
	from node:3634;
	to node:4172;
	current_limit 3000.0;
	status CLOSED;
}

object fuse:4585 {
	name R5-12-47-3_fuse_6;
	phases "CN";
	from node:4299;
	to node:4175;
	current_limit 3000.0;
	status CLOSED;
}

object fuse:4596 {
	name R5-12-47-3_fuse_7;
	phases "CN";
	from node:2982;
	to node:4192;
	current_limit 3000.0;
	status CLOSED;
}

object fuse:4600 {
	name R5-12-47-3_fuse_8;
	phases "BN";
	from node:4372;
	to node:4200;
	current_limit 3000.0;
	status CLOSED;
}

object fuse:4618 {
	name R5-12-47-3_fuse_9;
	phases "AN";
	from node:2869;
	to node:4225;
	current_limit 3000.0;
	status CLOSED;
}

object fuse:4619 {
	name R5-12-47-3_fuse_10;
	phases "ABCN";
	from node:3056;
	to node:4226;
	current_limit 3000.0;
	status CLOSED;
}

object fuse:4620 {
	name R5-12-47-3_fuse_11;
	phases "AN";
	from node:3218;
	to node:4227;
	current_limit 3000.0;
	status CLOSED;
}

object fuse:4621 {
	name R5-12-47-3_fuse_12;
	phases "CN";
	from node:3297;
	to node:4228;
	current_limit 3000.0;
	status CLOSED;
}

object fuse:4622 {
	name R5-12-47-3_fuse_13;
	phases "BN";
	from node:3339;
	to node:4229;
	current_limit 3000.0;
	status CLOSED;
}

object fuse:4623 {
	name R5-12-47-3_fuse_14;
	phases "AN";
	from node:3114;
	to node:4230;
	current_limit 3000.0;
	status CLOSED;
}

object fuse:4624 {
	name R5-12-47-3_fuse_15;
	phases "CN";
	from node:3236;
	to node:4231;
	current_limit 3000.0;
	status CLOSED;
}

object fuse:4625 {
	name R5-12-47-3_fuse_16;
	phases "BN";
	from node:3453;
	to node:4232;
	current_limit 3000.0;
	status CLOSED;
}

object fuse:4626 {
	name R5-12-47-3_fuse_17;
	phases "BN";
	from node:3493;
	to node:4233;
	current_limit 3000.0;
	status CLOSED;
}

object fuse:4627 {
	name R5-12-47-3_fuse_18;
	phases "CN";
	from node:3529;
	to node:4234;
	current_limit 3000.0;
	status CLOSED;
}

object fuse:4628 {
	name R5-12-47-3_fuse_19;
	phases "CN";
	from node:3545;
	to node:4235;
	current_limit 3000.0;
	status CLOSED;
}

object fuse:4629 {
	name R5-12-47-3_fuse_20;
	phases "BN";
	from node:3471;
	to node:4236;
	current_limit 3000.0;
	status CLOSED;
}

object fuse:4630 {
	name R5-12-47-3_fuse_21;
	phases "BN";
	from node:3563;
	to node:4237;
	current_limit 3000.0;
	status CLOSED;
}

object fuse:4632 {
	name R5-12-47-3_fuse_22;
	phases "AN";
	from node:3616;
	to node:4239;
	current_limit 3000.0;
	status CLOSED;
}

object fuse:4633 {
	name R5-12-47-3_fuse_23;
	phases "AN";
	from node:3656;
	to node:4240;
	current_limit 3000.0;
	status CLOSED;
}

object fuse:4634 {
	name R5-12-47-3_fuse_24;
	phases "AN";
	from node:3659;
	to node:4241;
	current_limit 3000.0;
	status CLOSED;
}

object fuse:4635 {
	name R5-12-47-3_fuse_25;
	phases "AN";
	from node:2658;
	to node:4242;
	current_limit 3000.0;
	status CLOSED;
}

object fuse:4636 {
	name R5-12-47-3_fuse_26;
	phases "CN";
	from node:3671;
	to node:4244;
	current_limit 3000.0;
	status CLOSED;
}

object fuse:4637 {
	name R5-12-47-3_fuse_27;
	phases "CN";
	from node:3672;
	to node:4245;
	current_limit 3000.0;
	status CLOSED;
}

object fuse:4638 {
	name R5-12-47-3_fuse_28;
	phases "BN";
	from node:3697;
	to node:4246;
	current_limit 3000.0;
	status CLOSED;
}

object fuse:4639 {
	name R5-12-47-3_fuse_29;
	phases "BN";
	from node:3647;
	to node:4247;
	current_limit 3000.0;
	status CLOSED;
}

object fuse:4650 {
	name R5-12-47-3_fuse_30;
	phases "CN";
	from node:3560;
	to node:4263;
	current_limit 3000.0;
	status CLOSED;
}

object fuse:4656 {
	name R5-12-47-3_fuse_31;
	phases "CN";
	from node:4273;
	to node:4272;
	current_limit 3000.0;
	status CLOSED;
}

object fuse:4659 {
	name R5-12-47-3_fuse_32;
	phases "BN";
	from node:4279;
	to node:4277;
	current_limit 3000.0;
	status CLOSED;
}

object fuse:4662 {
	name R5-12-47-3_fuse_33;
	phases "CN";
	from node:4280;
	to node:4281;
	current_limit 3000.0;
	status CLOSED;
}

object fuse:4666 {
	name R5-12-47-3_fuse_34;
	phases "CN";
	from node:3644;
	to node:4288;
	current_limit 3000.0;
	status CLOSED;
}

object fuse:4672 {
	name R5-12-47-3_fuse_35;
	phases "BN";
	from node:4295;
	to node:4296;
	current_limit 3000.0;
	status CLOSED;
}

object fuse:4676 {
	name R5-12-47-3_fuse_36;
	phases "AN";
	from node:4300;
	to node:4301;
	current_limit 3000.0;
	status CLOSED;
}

object fuse:4678 {
	name R5-12-47-3_fuse_37;
	phases "ABCN";
	from node:4302;
	to node:4303;
	current_limit 3000.0;
	status CLOSED;
}

object fuse:4679 {
	name R5-12-47-3_fuse_38;
	phases "BN";
	from node:4306;
	to node:4304;
	current_limit 3000.0;
	status CLOSED;
}

object fuse:4682 {
	name R5-12-47-3_fuse_39;
	phases "BN";
	from node:4305;
	to node:4307;
	current_limit 3000.0;
	status CLOSED;
}

object fuse:4689 {
	name R5-12-47-3_fuse_40;
	phases "AN";
	from node:4316;
	to node:4317;
	current_limit 3000.0;
	status CLOSED;
}

object fuse:4690 {
	name R5-12-47-3_fuse_41;
	phases "AN";
	from node:3223;
	to node:4319;
	current_limit 3000.0;
	status CLOSED;
}

object fuse:4694 {
	name R5-12-47-3_fuse_42;
	phases "BN";
	from node:4313;
	to node:4325;
	current_limit 3000.0;
	status CLOSED;
}

object fuse:4697 {
	name R5-12-47-3_fuse_43;
	phases "BN";
	from node:4333;
	to node:4330;
	current_limit 3000.0;
	status CLOSED;
}

object fuse:4703 {
	name R5-12-47-3_fuse_44;
	phases "BN";
	from node:3331;
	to node:4341;
	current_limit 3000.0;
	status CLOSED;
}

object fuse:4704 {
	name R5-12-47-3_fuse_45;
	phases "BN";
	from node:4341;
	to node:4343;
	current_limit 3000.0;
	status CLOSED;
}

object fuse:4708 {
	name R5-12-47-3_fuse_46;
	phases "CN";
	from node:4349;
	to node:4348;
	current_limit 3000.0;
	status CLOSED;
}

object fuse:4709 {
	name R5-12-47-3_fuse_47;
	phases "CN";
	from node:4322;
	to node:4349;
	current_limit 3000.0;
	status CLOSED;
}

object fuse:4714 {
	name R5-12-47-3_fuse_48;
	phases "BN";
	from node:4358;
	to node:4357;
	current_limit 3000.0;
	status CLOSED;
}

object fuse:4715 {
	name R5-12-47-3_fuse_49;
	phases "BN";
	from node:4346;
	to node:4358;
	current_limit 3000.0;
	status CLOSED;
}

object fuse:4717 {
	name R5-12-47-3_fuse_50;
	phases "BN";
	from node:3071;
	to node:4362;
	current_limit 3000.0;
	status CLOSED;
}

object fuse:4720 {
	name R5-12-47-3_fuse_51;
	phases "BN";
	from node:4364;
	to node:4367;
	current_limit 3000.0;
	status CLOSED;
}

object fuse:4726 {
	name R5-12-47-3_fuse_52;
	phases "AN";
	from node:3504;
	to node:4375;
	current_limit 3000.0;
	status CLOSED;
}

object fuse:4737 {
	name R5-12-47-3_fuse_53;
	phases "AN";
	from node:4393;
	to node:4391;
	current_limit 3000.0;
	status CLOSED;
}

object fuse:4755 {
	name R5-12-47-3_fuse_54;
	phases "BN";
	from node:2586;
	to node:4401;
	current_limit 3000.0;
	status CLOSED;
}

object fuse:4759 {
	name R5-12-47-3_fuse_55;
	phases "BN";
	from node:2610;
	to node:4406;
	current_limit 3000.0;
	status CLOSED;
}

object fuse:4765 {
	name R5-12-47-3_fuse_56;
	phases "AN";
	from node:4416;
	to node:4414;
	current_limit 3000.0;
	status CLOSED;
}

object fuse:4769 {
	name R5-12-47-3_fuse_57;
	phases "BN";
	from node:4369;
	to node:4421;
	current_limit 3000.0;
	status CLOSED;
}

object fuse:4770 {
	name R5-12-47-3_fuse_58;
	phases "BN";
	from node:4426;
	to node:4423;
	current_limit 3000.0;
	status CLOSED;
}

object fuse:4781 {
	name R5-12-47-3_fuse_59;
	phases "CN";
	from node:3137;
	to node:2253;
	current_limit 3000.0;
	status CLOSED;
}

object fuse:4784 {
	name R5-12-47-3_fuse_60;
	phases "BN";
	from node:4389;
	to node:2257;
	current_limit 3000.0;
	status CLOSED;
}

object fuse:4799 {
	name R5-12-47-3_fuse_61;
	phases "BN";
	from node:2265;
	to node:2278;
	current_limit 3000.0;
	status CLOSED;
}

object fuse:4801 {
	name R5-12-47-3_fuse_62;
	phases "BN";
	from node:2276;
	to node:2282;
	current_limit 3000.0;
	status CLOSED;
}

object fuse:4812 {
	name R5-12-47-3_fuse_63;
	phases "BN";
	from node:2300;
	to node:2301;
	current_limit 3000.0;
	status CLOSED;
}

object fuse:4819 {
	name R5-12-47-3_fuse_64;
	phases "CN";
	from node:2312;
	to node:2313;
	current_limit 3000.0;
	status CLOSED;
}

object fuse:4823 {
	name R5-12-47-3_fuse_65;
	phases "BN";
	from node:2317;
	to node:2319;
	current_limit 3000.0;
	status CLOSED;
}

object fuse:4832 {
	name R5-12-47-3_fuse_66;
	phases "AN";
	from node:2326;
	to node:2331;
	current_limit 3000.0;
	status CLOSED;
}

object fuse:4835 {
	name R5-12-47-3_fuse_67;
	phases "CN";
	from node:2334;
	to node:2335;
	current_limit 3000.0;
	status CLOSED;
}

object fuse:4838 {
	name R5-12-47-3_fuse_68;
	phases "CN";
	from node:2342;
	to node:2339;
	current_limit 3000.0;
	status CLOSED;
}

object fuse:4848 {
	name R5-12-47-3_fuse_69;
	phases "BN";
	from node:2355;
	to node:2350;
	current_limit 3000.0;
	status CLOSED;
}

object fuse:4855 {
	name R5-12-47-3_fuse_70;
	phases "AN";
	from node:2364;
	to node:2361;
	current_limit 3000.0;
	status CLOSED;
}

object fuse:4858 {
	name R5-12-47-3_fuse_71;
	phases "BN";
	from node:2370;
	to node:2365;
	current_limit 3000.0;
	status CLOSED;
}

object fuse:4867 {
	name R5-12-47-3_fuse_72;
	phases "AN";
	from node:2377;
	to node:2379;
	current_limit 3000.0;
	status CLOSED;
}

object fuse:4878 {
	name R5-12-47-3_fuse_73;
	phases "CN";
	from node:2328;
	to node:2395;
	current_limit 3000.0;
	status CLOSED;
}

object fuse:4891 {
	name R5-12-47-3_fuse_74;
	phases "CN";
	from node:2408;
	to node:2409;
	current_limit 3000.0;
	status CLOSED;
}

object fuse:4897 {
	name R5-12-47-3_fuse_75;
	phases "BN";
	from node:2414;
	to node:2415;
	current_limit 3000.0;
	status CLOSED;
}

object fuse:4899 {
	name R5-12-47-3_fuse_76;
	phases "AN";
	from node:4429;
	to node:2419;
	current_limit 3000.0;
	status CLOSED;
}

object fuse:4914 {
	name R5-12-47-3_fuse_77;
	phases "CN";
	from node:2438;
	to node:2441;
	current_limit 3000.0;
	status CLOSED;
}

object fuse:4933 {
	name R5-12-47-3_fuse_78;
	phases "AN";
	from node:2470;
	to node:2471;
	current_limit 3000.0;
	status CLOSED;
}

object fuse:4935 {
	name R5-12-47-3_fuse_79;
	phases "AN";
	from node:2472;
	to node:2473;
	current_limit 3000.0;
	status CLOSED;
}

object fuse:4945 {
	name R5-12-47-3_fuse_80;
	phases "CN";
	from node:2487;
	to node:2488;
	current_limit 3000.0;
	status CLOSED;
}

object fuse:4963 {
	name R5-12-47-3_fuse_81;
	phases "CN";
	from node:2508;
	to node:2506;
	current_limit 3000.0;
	status CLOSED;
}

object fuse:5004 {
	name R5-12-47-3_fuse_82;
	phases "CN";
	from node:2413;
	to node:3759;
	current_limit 3000.0;
	status CLOSED;
}

object fuse:5020 {
	name R5-12-47-3_fuse_83;
	phases "CN";
	from node:2455;
	to node:3781;
	current_limit 3000.0;
	status CLOSED;
}

object fuse:5022 {
	name R5-12-47-3_fuse_84;
	phases "BN";
	from node:2509;
	to node:3783;
	current_limit 3000.0;
	status CLOSED;
}

object fuse:5023 {
	name R5-12-47-3_fuse_85;
	phases "CN";
	from node:2490;
	to node:3785;
	current_limit 3000.0;
	status CLOSED;
}

object fuse:5079 {
	name R5-12-47-3_fuse_86;
	phases "CN";
	from node:2606;
	to node:2607;
	current_limit 3000.0;
	status CLOSED;
}

object fuse:5085 {
	name R5-12-47-3_fuse_87;
	phases "AN";
	from node:2613;
	to node:2615;
	current_limit 3000.0;
	status CLOSED;
}

object fuse:5108 {
	name R5-12-47-3_fuse_88;
	phases "CN";
	from node:2612;
	to node:2647;
	current_limit 3000.0;
	status CLOSED;
}

object fuse:5110 {
	name R5-12-47-3_fuse_89;
	phases "AN";
	from node:2634;
	to node:2650;
	current_limit 3000.0;
	status CLOSED;
}

object fuse:5115 {
	name R5-12-47-3_fuse_90;
	phases "BN";
	from node:2737;
	to node:2659;
	current_limit 3000.0;
	status CLOSED;
}

object fuse:5119 {
	name R5-12-47-3_fuse_91;
	phases "AN";
	from node:2668;
	to node:2666;
	current_limit 3000.0;
	status CLOSED;
}

object fuse:5149 {
	name R5-12-47-3_fuse_92;
	phases "BN";
	from node:2716;
	to node:2717;
	current_limit 3000.0;
	status CLOSED;
}

object fuse:5156 {
	name R5-12-47-3_fuse_93;
	phases "BN";
	from node:3615;
	to node:2729;
	current_limit 3000.0;
	status CLOSED;
}

object fuse:5173 {
	name R5-12-47-3_fuse_94;
	phases "AN";
	from node:2747;
	to node:2758;
	current_limit 3000.0;
	status CLOSED;
}

object fuse:5214 {
	name R5-12-47-3_fuse_95;
	phases "AN";
	from node:2830;
	to node:2825;
	current_limit 3000.0;
	status CLOSED;
}

object fuse:5225 {
	name R5-12-47-3_fuse_96;
	phases "BN";
	from node:2846;
	to node:2843;
	current_limit 3000.0;
	status CLOSED;
}

object fuse:5231 {
	name R5-12-47-3_fuse_97;
	phases "BN";
	from node:2857;
	to node:2853;
	current_limit 3000.0;
	status CLOSED;
}

object fuse:5236 {
	name R5-12-47-3_fuse_98;
	phases "AN";
	from node:3426;
	to node:2860;
	current_limit 3000.0;
	status CLOSED;
}

object fuse:5242 {
	name R5-12-47-3_fuse_99;
	phases "AN";
	from node:2910;
	to node:2869;
	current_limit 3000.0;
	status CLOSED;
}

object fuse:5280 {
	name R5-12-47-3_fuse_100;
	phases "CN";
	from node:2925;
	to node:2926;
	current_limit 3000.0;
	status CLOSED;
}

object fuse:5291 {
	name R5-12-47-3_fuse_101;
	phases "CN";
	from node:3486;
	to node:2939;
	current_limit 3000.0;
	status CLOSED;
}

object fuse:5299 {
	name R5-12-47-3_fuse_102;
	phases "CN";
	from node:2946;
	to node:2947;
	current_limit 3000.0;
	status CLOSED;
}

object fuse:5312 {
	name R5-12-47-3_fuse_103;
	phases "BN";
	from node:2970;
	to node:2965;
	current_limit 3000.0;
	status CLOSED;
}

object fuse:5318 {
	name R5-12-47-3_fuse_104;
	phases "AN";
	from node:2981;
	to node:2977;
	current_limit 3000.0;
	status CLOSED;
}

object fuse:5326 {
	name R5-12-47-3_fuse_105;
	phases "AN";
	from node:2985;
	to node:2987;
	current_limit 3000.0;
	status CLOSED;
}

object fuse:5340 {
	name R5-12-47-3_fuse_106;
	phases "CN";
	from node:3005;
	to node:3003;
	current_limit 3000.0;
	status CLOSED;
}

object fuse:5353 {
	name R5-12-47-3_fuse_107;
	phases "AN";
	from node:3020;
	to node:3022;
	current_limit 3000.0;
	status CLOSED;
}

object fuse:5358 {
	name R5-12-47-3_fuse_108;
	phases "CN";
	from node:3029;
	to node:3028;
	current_limit 3000.0;
	status CLOSED;
}

object fuse:5360 {
	name R5-12-47-3_fuse_109;
	phases "CN";
	from node:3031;
	to node:3030;
	current_limit 3000.0;
	status CLOSED;
}

object fuse:5362 {
	name R5-12-47-3_fuse_110;
	phases "AN";
	from node:3034;
	to node:3032;
	current_limit 3000.0;
	status CLOSED;
}

object fuse:5379 {
	name R5-12-47-3_fuse_111;
	phases "CN";
	from node:4431;
	to node:3057;
	current_limit 3000.0;
	status CLOSED;
}

object fuse:5384 {
	name R5-12-47-3_fuse_112;
	phases "CN";
	from node:3062;
	to node:3064;
	current_limit 3000.0;
	status CLOSED;
}

object fuse:5386 {
	name R5-12-47-3_fuse_113;
	phases "CN";
	from node:3019;
	to node:3066;
	current_limit 3000.0;
	status CLOSED;
}

object fuse:5424 {
	name R5-12-47-3_fuse_114;
	phases "CN";
	from node:3201;
	to node:3109;
	current_limit 3000.0;
	status CLOSED;
}

object fuse:5432 {
	name R5-12-47-3_fuse_115;
	phases "AN";
	from node:3120;
	to node:3121;
	current_limit 3000.0;
	status CLOSED;
}

object fuse:5434 {
	name R5-12-47-3_fuse_116;
	phases "AN";
	from node:3101;
	to node:3125;
	current_limit 3000.0;
	status CLOSED;
}

object fuse:5442 {
	name R5-12-47-3_fuse_117;
	phases "CN";
	from node:3131;
	to node:3133;
	current_limit 3000.0;
	status CLOSED;
}

object fuse:5459 {
	name R5-12-47-3_fuse_118;
	phases "BN";
	from node:3192;
	to node:3159;
	current_limit 3000.0;
	status CLOSED;
}

object fuse:5465 {
	name R5-12-47-3_fuse_119;
	phases "BN";
	from node:3166;
	to node:3169;
	current_limit 3000.0;
	status CLOSED;
}

object fuse:5486 {
	name R5-12-47-3_fuse_120;
	phases "AN";
	from node:3209;
	to node:3200;
	current_limit 3000.0;
	status CLOSED;
}

object fuse:5492 {
	name R5-12-47-3_fuse_121;
	phases "AN";
	from node:3215;
	to node:3211;
	current_limit 3000.0;
	status CLOSED;
}

object fuse:5500 {
	name R5-12-47-3_fuse_122;
	phases "CN";
	from node:3220;
	to node:3221;
	current_limit 3000.0;
	status CLOSED;
}

object fuse:5513 {
	name R5-12-47-3_fuse_123;
	phases "CN";
	from node:3234;
	to node:3235;
	current_limit 3000.0;
	status CLOSED;
}

object fuse:5517 {
	name R5-12-47-3_fuse_124;
	phases "AN";
	from node:3238;
	to node:3240;
	current_limit 3000.0;
	status CLOSED;
}

object fuse:5528 {
	name R5-12-47-3_fuse_125;
	phases "AN";
	from node:3255;
	to node:3256;
	current_limit 3000.0;
	status CLOSED;
}

object fuse:5532 {
	name R5-12-47-3_fuse_126;
	phases "BN";
	from node:3338;
	to node:3263;
	current_limit 3000.0;
	status CLOSED;
}

object fuse:5539 {
	name R5-12-47-3_fuse_127;
	phases "BN";
	from node:3686;
	to node:3273;
	current_limit 3000.0;
	status CLOSED;
}

object fuse:5550 {
	name R5-12-47-3_fuse_128;
	phases "CN";
	from node:3289;
	to node:3291;
	current_limit 3000.0;
	status CLOSED;
}

object fuse:5552 {
	name R5-12-47-3_fuse_129;
	phases "CN";
	from node:3299;
	to node:3293;
	current_limit 3000.0;
	status CLOSED;
}

object fuse:5581 {
	name R5-12-47-3_fuse_130;
	phases "BN";
	from node:3333;
	to node:3334;
	current_limit 3000.0;
	status CLOSED;
}

object fuse:5603 {
	name R5-12-47-3_fuse_131;
	phases "AN";
	from node:2592;
	to node:3370;
	current_limit 3000.0;
	status CLOSED;
}

object fuse:5605 {
	name R5-12-47-3_fuse_132;
	phases "AN";
	from node:3371;
	to node:3373;
	current_limit 3000.0;
	status CLOSED;
}

object fuse:5607 {
	name R5-12-47-3_fuse_133;
	phases "AN";
	from node:3377;
	to node:3376;
	current_limit 3000.0;
	status CLOSED;
}

object fuse:5624 {
	name R5-12-47-3_fuse_134;
	phases "AN";
	from node:3399;
	to node:3400;
	current_limit 3000.0;
	status CLOSED;
}

object fuse:5628 {
	name R5-12-47-3_fuse_135;
	phases "BN";
	from node:3405;
	to node:3407;
	current_limit 3000.0;
	status CLOSED;
}

object fuse:5631 {
	name R5-12-47-3_fuse_136;
	phases "BN";
	from node:3410;
	to node:3412;
	current_limit 3000.0;
	status CLOSED;
}

object fuse:5636 {
	name R5-12-47-3_fuse_137;
	phases "BN";
	from node:4368;
	to node:3420;
	current_limit 3000.0;
	status CLOSED;
}

object fuse:5637 {
	name R5-12-47-3_fuse_138;
	phases "BN";
	from node:4371;
	to node:3421;
	current_limit 3000.0;
	status CLOSED;
}

object fuse:5641 {
	name R5-12-47-3_fuse_139;
	phases "CN";
	from node:2878;
	to node:3427;
	current_limit 3000.0;
	status CLOSED;
}

object fuse:5647 {
	name R5-12-47-3_fuse_140;
	phases "BN";
	from node:2678;
	to node:3435;
	current_limit 3000.0;
	status CLOSED;
}

object fuse:5694 {
	name R5-12-47-3_fuse_141;
	phases "CN";
	from node:3288;
	to node:3512;
	current_limit 3000.0;
	status CLOSED;
}

object fuse:5700 {
	name R5-12-47-3_fuse_142;
	phases "BN";
	from node:3521;
	to node:3518;
	current_limit 3000.0;
	status CLOSED;
}

object fuse:5705 {
	name R5-12-47-3_fuse_143;
	phases "CN";
	from node:3523;
	to node:3524;
	current_limit 3000.0;
	status CLOSED;
}

object fuse:5741 {
	name R5-12-47-3_fuse_144;
	phases "CN";
	from node:3576;
	to node:3577;
	current_limit 3000.0;
	status CLOSED;
}

object fuse:5744 {
	name R5-12-47-3_fuse_145;
	phases "CN";
	from node:3580;
	to node:3581;
	current_limit 3000.0;
	status CLOSED;
}

object fuse:5760 {
	name R5-12-47-3_fuse_146;
	phases "BN";
	from node:3600;
	to node:3599;
	current_limit 3000.0;
	status CLOSED;
}

object fuse:5765 {
	name R5-12-47-3_fuse_147;
	phases "CN";
	from node:3605;
	to node:3606;
	current_limit 3000.0;
	status CLOSED;
}

object fuse:5768 {
	name R5-12-47-3_fuse_148;
	phases "AN";
	from node:3608;
	to node:3610;
	current_limit 3000.0;
	status CLOSED;
}

object fuse:5769 {
	name R5-12-47-3_fuse_149;
	phases "AN";
	from node:3244;
	to node:3611;
	current_limit 3000.0;
	status CLOSED;
}

object fuse:5774 {
	name R5-12-47-3_fuse_150;
	phases "CN";
	from node:3199;
	to node:3619;
	current_limit 3000.0;
	status CLOSED;
}

object fuse:5778 {
	name R5-12-47-3_fuse_151;
	phases "BCN";
	from node:3170;
	to node:3625;
	current_limit 3000.0;
	status CLOSED;
}

object fuse:5781 {
	name R5-12-47-3_fuse_152;
	phases "BN";
	from node:3628;
	to node:3630;
	current_limit 3000.0;
	status CLOSED;
}

object fuse:5783 {
	name R5-12-47-3_fuse_153;
	phases "AN";
	from node:3631;
	to node:3632;
	current_limit 3000.0;
	status CLOSED;
}

object fuse:5787 {
	name R5-12-47-3_fuse_154;
	phases "AN";
	from node:3212;
	to node:3639;
	current_limit 3000.0;
	status CLOSED;
}

object fuse:5789 {
	name R5-12-47-3_fuse_155;
	phases "CN";
	from node:3640;
	to node:3641;
	current_limit 3000.0;
	status CLOSED;
}

object fuse:5805 {
	name R5-12-47-3_fuse_156;
	phases "BN";
	from node:3663;
	to node:3665;
	current_limit 3000.0;
	status CLOSED;
}

object fuse:5809 {
	name R5-12-47-3_fuse_157;
	phases "ABCN";
	from node:3668;
	to node:3669;
	current_limit 3000.0;
	status CLOSED;
}

object fuse:5816 {
	name R5-12-47-3_fuse_158;
	phases "BN";
	from node:3679;
	to node:3681;
	current_limit 3000.0;
	status CLOSED;
}

object fuse:5818 {
	name R5-12-47-3_fuse_159;
	phases "CN";
	from node:3682;
	to node:3683;
	current_limit 3000.0;
	status CLOSED;
}

object fuse:5825 {
	name R5-12-47-3_fuse_160;
	phases "AN";
	from node:3692;
	to node:3694;
	current_limit 3000.0;
	status CLOSED;
}

object fuse:5832 {
	name R5-12-47-3_fuse_161;
	phases "BN";
	from node:2272;
	to node:3705;
	current_limit 3000.0;
	status CLOSED;
}

object fuse:5859 {
	name R5-12-47-3_fuse_162;
	phases "AN";
	from node:2704;
	to node:3843;
	current_limit 3000.0;
	status CLOSED;
}

object fuse:5862 {
	name R5-12-47-3_fuse_163;
	phases "BN";
	from node:4314;
	to node:3850;
	current_limit 3000.0;
	status CLOSED;
}

object fuse:5865 {
	name R5-12-47-3_fuse_164;
	phases "BN";
	from node:2811;
	to node:3856;
	current_limit 3000.0;
	status CLOSED;
}

object fuse:5870 {
	name R5-12-47-3_fuse_165;
	phases "AN";
	from node:2769;
	to node:3866;
	current_limit 3000.0;
	status CLOSED;
}

object fuse:5878 {
	name R5-12-47-3_fuse_166;
	phases "AN";
	from node:2765;
	to node:3882;
	current_limit 3000.0;
	status CLOSED;
}

object fuse:5880 {
	name R5-12-47-3_fuse_167;
	phases "CN";
	from node:2893;
	to node:3885;
	current_limit 3000.0;
	status CLOSED;
}

object fuse:5892 {
	name R5-12-47-3_fuse_168;
	phases "CN";
	from node:2929;
	to node:3908;
	current_limit 3000.0;
	status CLOSED;
}

object fuse:5910 {
	name R5-12-47-3_fuse_169;
	phases "BN";
	from node:2964;
	to node:3932;
	current_limit 3000.0;
	status CLOSED;
}

object fuse:5923 {
	name R5-12-47-3_fuse_170;
	phases "CN";
	from node:3097;
	to node:3950;
	current_limit 3000.0;
	status CLOSED;
}

object fuse:5926 {
	name R5-12-47-3_fuse_171;
	phases "AN";
	from node:3119;
	to node:3956;
	current_limit 3000.0;
	status CLOSED;
}

object fuse:5931 {
	name R5-12-47-3_fuse_172;
	phases "CN";
	from node:3135;
	to node:3965;
	current_limit 3000.0;
	status CLOSED;
}

object fuse:5941 {
	name R5-12-47-3_fuse_173;
	phases "CN";
	from node:3232;
	to node:3976;
	current_limit 3000.0;
	status CLOSED;
}

object fuse:5947 {
	name R5-12-47-3_fuse_174;
	phases "CN";
	from node:3388;
	to node:3983;
	current_limit 3000.0;
	status CLOSED;
}

object fuse:5949 {
	name R5-12-47-3_fuse_175;
	phases "AN";
	from node:2387;
	to node:3987;
	current_limit 3000.0;
	status CLOSED;
}

object fuse:5951 {
	name R5-12-47-3_fuse_176;
	phases "AN";
	from node:3237;
	to node:3990;
	current_limit 3000.0;
	status CLOSED;
}

object fuse:5956 {
	name R5-12-47-3_fuse_177;
	phases "BN";
	from node:3270;
	to node:3998;
	current_limit 3000.0;
	status CLOSED;
}

object fuse:5965 {
	name R5-12-47-3_fuse_178;
	phases "AN";
	from node:3249;
	to node:4012;
	current_limit 3000.0;
	status CLOSED;
}

object fuse:5974 {
	name R5-12-47-3_fuse_179;
	phases "BN";
	from node:3325;
	to node:4029;
	current_limit 3000.0;
	status CLOSED;
}

object fuse:5976 {
	name R5-12-47-3_fuse_180;
	phases "BN";
	from node:3322;
	to node:4034;
	current_limit 3000.0;
	status CLOSED;
}

object fuse:5977 {
	name R5-12-47-3_fuse_181;
	phases "BN";
	from node:3315;
	to node:4035;
	current_limit 3000.0;
	status CLOSED;
}

object fuse:5981 {
	name R5-12-47-3_fuse_182;
	phases "CN";
	from node:2943;
	to node:4043;
	current_limit 3000.0;
	status CLOSED;
}


object line_configuration:4434 {
	conductor_B overhead_line_conductor:11;
	conductor_N overhead_line_conductor:11;
	spacing line_spacing:4433;
}

object line_configuration:4436 {
	conductor_A overhead_line_conductor:11;
	conductor_B overhead_line_conductor:11;
	conductor_C overhead_line_conductor:11;
	conductor_N overhead_line_conductor:11;
	spacing line_spacing:4435;
}

object line_configuration:4438 {
	conductor_C overhead_line_conductor:19;
	conductor_N overhead_line_conductor:19;
	spacing line_spacing:4437;
}

object line_configuration:4439 {
	conductor_C overhead_line_conductor:11;
	conductor_N overhead_line_conductor:11;
	spacing line_spacing:4437;
}

object line_configuration:4440 {
	conductor_B overhead_line_conductor:19;
	conductor_N overhead_line_conductor:19;
	spacing line_spacing:4433;
}

object line_configuration:4442 {
	conductor_A underground_line_conductor:43;
	conductor_N underground_line_conductor:43;
	spacing line_spacing:4441;
}

object line_configuration:4444 {
	conductor_A overhead_line_conductor:11;
	conductor_B overhead_line_conductor:11;
	conductor_C overhead_line_conductor:11;
	conductor_N overhead_line_conductor:11;
	spacing line_spacing:4443;
}

object line_configuration:4446 {
	conductor_B underground_line_conductor:43;
	conductor_N underground_line_conductor:43;
	spacing line_spacing:4445;
}

object line_configuration:4448 {
	conductor_A overhead_line_conductor:19;
	conductor_N overhead_line_conductor:19;
	spacing line_spacing:4447;
}

object line_configuration:4449 {
	conductor_A underground_line_conductor:42;
	conductor_N underground_line_conductor:42;
	spacing line_spacing:4441;
}

object line_configuration:4451 {
	conductor_A underground_line_conductor:42;
	conductor_C underground_line_conductor:42;
	conductor_N underground_line_conductor:42;
	spacing line_spacing:4450;
}

object line_configuration:4452 {
	conductor_B underground_line_conductor:42;
	conductor_N underground_line_conductor:42;
	spacing line_spacing:4445;
}

object line_configuration:4454 {
	conductor_A underground_line_conductor:42;
	conductor_B underground_line_conductor:42;
	conductor_C underground_line_conductor:42;
	conductor_N underground_line_conductor:42;
	spacing line_spacing:4453;
}

object line_configuration:4456 {
	conductor_A overhead_line_conductor:39;
	conductor_B overhead_line_conductor:39;
	conductor_C overhead_line_conductor:39;
	conductor_N overhead_line_conductor:39;
	spacing line_spacing:4455;
}

object line_configuration:4458 {
	conductor_C underground_line_conductor:43;
	conductor_N underground_line_conductor:43;
	spacing line_spacing:4457;
}

object line_configuration:4459 {
	conductor_C underground_line_conductor:42;
	conductor_N underground_line_conductor:42;
	spacing line_spacing:4457;
}

object line_configuration:4460 {
	conductor_A overhead_line_conductor:11;
	conductor_N overhead_line_conductor:11;
	spacing line_spacing:4447;
}

object line_configuration:4462 {
	conductor_A overhead_line_conductor:11;
	conductor_C overhead_line_conductor:11;
	conductor_N overhead_line_conductor:11;
	spacing line_spacing:4461;
}

object line_configuration:4464 {
	conductor_A overhead_line_conductor:38;
	conductor_B overhead_line_conductor:38;
	conductor_C overhead_line_conductor:38;
	conductor_N overhead_line_conductor:38;
	spacing line_spacing:4463;
}

object line_configuration:4465 {
	conductor_A overhead_line_conductor:38;
	conductor_B overhead_line_conductor:38;
	conductor_C overhead_line_conductor:38;
	conductor_N overhead_line_conductor:38;
	spacing line_spacing:4455;
}

object line_configuration:4466 {
	conductor_C overhead_line_conductor:30;
	conductor_N overhead_line_conductor:30;