//*********************************************
// $Id: R5-12.47-4.glm 1132 2008-11-18 22:36:10Z dchassin $ 
//*********************************************

clock { 
	 timezone EST+5EDT;
	 timestamp '2000-01-01 0:00:00';
}

//*********************************************
// modules
module powerflow;


object triplex_line_conductor: {
	name 1/0 AA triplex;
	resistance 0.97;
	geometric_mean_radius 0.0111;
}

object triplex_line_configuration:1 {
	conductor_1 1/0 AA triplex;
	conductor_2 1/0 AA triplex;
	conductor_N 1/0 AA triplex;
	insulation_thickness 0.08;
	diameter 0.368;
}

object transformer:120  {
	phases "BS";
	from N78035;
	to N78035_RB_M;
	configuration transformer_configuration:69;
}

object triplex_meter:121 {
	name N78035_RB_M;
	phases "BS";
	nominal_voltage 120;
	voltage_1 -60.000-103.923j;
	voltage_2 -60.000-103.923j;
	voltage_N 0;
}

object triplex_node:122 {
	name N78035_RB_TX;
	parent N78035_RB_M;
	phases BS;
	nominal_voltage 120;
	latitude 48N19'58.637";
	longitude 116W7'31.030";
	power_1 31.7847100505018+19.2808415512748j;
	voltage_1 -60.000-103.923j;
	voltage_2 -60.000-103.923j;
	voltage_N 0;
}

object transformer:123  {
	phases "AS";
	from N78107;
	to N78107_RA_M;
	configuration transformer_configuration:51;
}

object triplex_meter:124 {
	name N78107_RA_M;
	phases "AS";
	nominal_voltage 120;
	voltage_1 120;
	voltage_2 120;
	voltage_N 0;
}

object triplex_node:125 {
	name N78107_RA_TX;
	parent N78107_RA_M;
	phases AS;
	nominal_voltage 120;
	latitude 48N20'0.543";
	longitude 116W7'33.515";
	power_1 22.7618800425795+13.8744288301346j;
	voltage_1 120;
	voltage_2 120;
	voltage_N 0;
}

object transformer:126  {
	phases "AS";
	from N78059;
	to N78059_RA_M;
	configuration transformer_configuration:52;
}

object triplex_meter:127 {
	name N78059_RA_M;
	phases "AS";
	nominal_voltage 120;
	voltage_1 120;
	voltage_2 120;
	voltage_N 0;
}

object triplex_node:128 {
	name N78059_RA_TX;
	parent N78059_RA_M;
	phases AS;
	nominal_voltage 120;
	latitude 48N19'59.341";
	longitude 116W7'34.077";
	power_1 33.375972930274+20.3442141067143j;
	voltage_1 120;
	voltage_2 120;
	voltage_N 0;
}

object transformer:129  {
	phases "BS";
	from N77955;
	to N77955_RB_M;
	configuration transformer_configuration:70;
}

object triplex_meter:130 {
	name N77955_RB_M;
	phases "BS";
	nominal_voltage 120;
	voltage_1 -60.000-103.923j;
	voltage_2 -60.000-103.923j;
	voltage_N 0;
}

object triplex_node:131 {
	name N77955_RB_TX;
	parent N77955_RB_M;
	phases BS;
	nominal_voltage 120;
	latitude 48N19'57.451";
	longitude 116W7'46.745";
	power_1 21.9621001950361+13.3223733462067j;
	voltage_1 -60.000-103.923j;
	voltage_2 -60.000-103.923j;
	voltage_N 0;
}

object transformer:132  {
	phases "BS";
	from N77983;
	to N77983_RB_M;
	configuration transformer_configuration:71;
}

object triplex_meter:133 {
	name N77983_RB_M;
	phases "BS";
	nominal_voltage 120;
	voltage_1 -60.000-103.923j;
	voltage_2 -60.000-103.923j;
	voltage_N 0;
}

object triplex_node:134 {
	name N77983_RB_TX;
	parent N77983_RB_M;
	phases BS;
	nominal_voltage 120;
	latitude 48N19'57.815";
	longitude 116W7'46.860";
	power_1 8.07256614904084+4.89687867482636j;
	voltage_1 -60.000-103.923j;
	voltage_2 -60.000-103.923j;
	voltage_N 0;
}

object transformer:135  {
	phases "A|B|C|N";
	from N68816;
	to N68816_C_M;
	configuration transformer_configuration:104;
}

object meter:136 {
	name N68816_C_M;
	phases "ABCN";
	nominal_voltage 7199.558;
	voltage_A 7199.558+0.0j;
	voltage_B -3599.779-6235.000j;
	voltage_C -3599.779+6235.000j;
}
object transformer:137  {
	phases "A|B|C|N";
	from N68729;
	to N68729_C_M;
	configuration transformer_configuration:105;
}

object meter:138 {
	name N68729_C_M;
	phases "ABCN";
	nominal_voltage 7199.558;
	voltage_A 7199.558+0.0j;
	voltage_B -3599.779-6235.000j;
	voltage_C -3599.779+6235.000j;
}
object transformer:139  {
	phases "AS";
	from N68719;
	to N68719_RA_M;
	configuration transformer_configuration:54;
}

object triplex_meter:140 {
	name N68719_RA_M;
	phases "AS";
	nominal_voltage 120;
	voltage_1 120;
	voltage_2 120;
	voltage_N 0;
}

object triplex_node:141 {
	name N68719_RA_TX;
	parent N68719_RA_M;
	phases AS;
	nominal_voltage 120;
	latitude 48N19'49.626";
	longitude 116W8'1.132";
	power_1 22.3528004536368+13.6250757172973j;
	voltage_1 120;
	voltage_2 120;
	voltage_N 0;
}

object transformer:142  {
	phases "BS";
	from N58397;
	to N58397_RB_M;
	configuration transformer_configuration:69;
}

object triplex_meter:143 {
	name N58397_RB_M;
	phases "BS";
	nominal_voltage 120;
	voltage_1 -60.000-103.923j;
	voltage_2 -60.000-103.923j;
	voltage_N 0;
}

object triplex_node:144 {
	name N58397_RB_TX;
	parent N58397_RB_M;
	phases BS;
	nominal_voltage 120;
	latitude 48N19'18.810";
	longitude 116W8'28.798";
	power_1 16.0966690672839+9.76435919335085j;
	voltage_1 -60.000-103.923j;
	voltage_2 -60.000-103.923j;
	voltage_N 0;
}

object transformer:145  {
	phases "BS";
	from N67879;
	to N67879_RB_M;
	configuration transformer_configuration:70;
}

object triplex_meter:146 {
	name N67879_RB_M;
	phases "BS";
	nominal_voltage 120;
	voltage_1 -60.000-103.923j;
	voltage_2 -60.000-103.923j;
	voltage_N 0;
}

object triplex_node:147 {
	name N67879_RB_TX;
	parent N67879_RB_M;
	phases BS;
	nominal_voltage 120;
	latitude 48N19'19.369";
	longitude 116W8'24.165";
	power_1 47.0285120896157+28.527845261177j;
	voltage_1 -60.000-103.923j;
	voltage_2 -60.000-103.923j;
	voltage_N 0;
}

object transformer:148  {
	phases "BS";
	from N67897;
	to N67897_RB_M;
	configuration transformer_configuration:72;
}

object triplex_meter:149 {
	name N67897_RB_M;
	phases "BS";
	nominal_voltage 120;
	voltage_1 -60.000-103.923j;
	voltage_2 -60.000-103.923j;
	voltage_N 0;
}

object triplex_node:150 {
	name N67897_RB_TX;
	parent N67897_RB_M;
	phases BS;
	nominal_voltage 120;
	latitude 48N19'19.858";
	longitude 116W8'21.972";
	power_1 72.6689195384136+44.0815071490757j;
	voltage_1 -60.000-103.923j;
	voltage_2 -60.000-103.923j;
	voltage_N 0;
}

object transformer:151  {
	phases "AS";
	from N58640;
	to N58640_RA_M;
	configuration transformer_configuration:51;
}

object triplex_meter:152 {
	name N58640_RA_M;
	phases "AS";
	nominal_voltage 120;
	voltage_1 120;
	voltage_2 120;
	voltage_N 0;
}

object triplex_node:153 {
	name N58640_RA_TX;
	parent N58640_RA_M;
	phases AS;
	nominal_voltage 120;
	latitude 48N19'26.491";
	longitude 116W8'37.637";
	power_1 34.6007239426806+21.090757042732j;
	voltage_1 120;
	voltage_2 120;
	voltage_N 0;
}

object transformer:154  {
	phases "BS";
	from N78334;
	to N78334_RB_M;
	configuration transformer_configuration:73;
}

object triplex_meter:155 {
	name N78334_RB_M;
	phases "BS";
	nominal_voltage 120;
	voltage_1 -60.000-103.923j;
	voltage_2 -60.000-103.923j;
	voltage_N 0;
}

object triplex_node:156 {
	name N78334_RB_TX;
	parent N78334_RB_M;
	phases BS;
	nominal_voltage 120;
	latitude 48N20'6.126";
	longitude 116W7'25.281";
	power_1 67.2063411636732+40.7678664728686j;
	voltage_1 -60.000-103.923j;
	voltage_2 -60.000-103.923j;
	voltage_N 0;
}

object transformer:157  {
	phases "AS";
	from N77927;
	to N77927_RA_M;
	configuration transformer_configuration:55;
}

object triplex_meter:158 {
	name N77927_RA_M;
	phases "AS";
	nominal_voltage 120;
	voltage_1 120;
	voltage_2 120;
	voltage_N 0;
}

object triplex_node:159 {
	name N77927_RA_TX;
	parent N77927_RA_M;
	phases AS;
	nominal_voltage 120;
	latitude 48N19'56.706";
	longitude 116W7'47.759";
	power_1 5.59508632185068+3.41046639494457j;
	voltage_1 120;
	voltage_2 120;
	voltage_N 0;
}

object transformer:160  {
	phases "BS";
	from N86245;
	to N86245_RB_M;
	configuration transformer_configuration:74;
}

object triplex_meter:161 {
	name N86245_RB_M;
	phases "BS";
	nominal_voltage 120;
	voltage_1 -60.000-103.923j;
	voltage_2 -60.000-103.923j;
	voltage_N 0;
}

object triplex_node:162 {
	name N86245_RB_TX;
	parent N86245_RB_M;
	phases BS;
	nominal_voltage 120;
	latitude 48N20'37.440";
	longitude 116W7'8.979";
	power_1 36.4100271348674+22.0865933006651j;
	voltage_1 -60.000-103.923j;
	voltage_2 -60.000-103.923j;
	voltage_N 0;
}

object transformer:163  {
	phases "A|B|C|N";
	from N78781;
	to N78781_C_M;
	configuration transformer_configuration:107;
}

object meter:164 {
	name N78781_C_M;
	phases "ABCN";
	nominal_voltage 7199.558;
	voltage_A 7199.558+0.0j;
	voltage_B -3599.779-6235.000j;
	voltage_C -3599.779+6235.000j;
}
object transformer:165  {
	phases "A|B|C|N";
	from N78772;
	to N78772_C_M;
	configuration transformer_configuration:108;
}

object meter:166 {
	name N78772_C_M;
	phases "ABCN";
	nominal_voltage 7199.558;
	voltage_A 7199.558+0.0j;
	voltage_B -3599.779-6235.000j;
	voltage_C -3599.779+6235.000j;
}
object transformer:167  {
	phases "BS";
	from N86225;
	to N86225_RB_M;
	configuration transformer_configuration:70;
}

object triplex_meter:168 {
	name N86225_RB_M;
	phases "BS";
	nominal_voltage 120;
	voltage_1 -60.000-103.923j;
	voltage_2 -60.000-103.923j;
	voltage_N 0;
}

object triplex_node:169 {
	name N86225_RB_TX;
	parent N86225_RB_M;
	phases BS;
	nominal_voltage 120;
	latitude 48N20'36.409";
	longitude 116W7'6.089";
	power_1 15.2219630660304+9.23375602637776j;
	voltage_1 -60.000-103.923j;
	voltage_2 -60.000-103.923j;
	voltage_N 0;
}

object transformer:170  {
	phases "AS";
	from N86213;
	to N86213_RA_M;
	configuration transformer_configuration:54;
}

object triplex_meter:171 {
	name N86213_RA_M;
	phases "AS";
	nominal_voltage 120;
	voltage_1 120;
	voltage_2 120;
	voltage_N 0;
}

object triplex_node:172 {
	name N86213_RA_TX;
	parent N86213_RA_M;
	phases AS;
	nominal_voltage 120;
	latitude 48N20'36.016";
	longitude 116W7'7.448";
	power_1 36.4749093365006+22.2331605617907j;
	voltage_1 120;
	voltage_2 120;
	voltage_N 0;
}

object transformer:173  {
	phases "AS";
	from N86209;
	to N86209_RA_M;
	configuration transformer_configuration:54;
}

object triplex_meter:174 {
	name N86209_RA_M;
	phases "AS";
	nominal_voltage 120;
	voltage_1 120;
	voltage_2 120;
	voltage_N 0;
}

object triplex_node:175 {
	name N86209_RA_TX;
	parent N86209_RA_M;
	phases AS;
	nominal_voltage 120;
	latitude 48N20'35.976";
	longitude 116W7'10.321";
	power_1 12.6582346683876+7.71578515013489j;
	voltage_1 120;
	voltage_2 120;
	voltage_N 0;
}

object transformer:176  {
	phases "AS";
	from N86157;
	to N86157_RA_M;
	configuration transformer_configuration:57;
}

object triplex_meter:177 {
	name N86157_RA_M;
	phases "AS";
	nominal_voltage 120;
	voltage_1 120;
	voltage_2 120;
	voltage_N 0;
}

object triplex_node:178 {
	name N86157_RA_TX;
	parent N86157_RA_M;
	phases AS;
	nominal_voltage 120;
	latitude 48N20'33.868";
	longitude 116W7'7.730";
	power_1 24.1360260815155+14.712035011336j;
	voltage_1 120;
	voltage_2 120;
	voltage_N 0;
}

object transformer:179  {
	phases "A|B|C|N";
	from N78757;
	to N78757_C_M;
	configuration transformer_configuration:109;
}

object meter:180 {
	name N78757_C_M;
	phases "ABCN";
	nominal_voltage 7199.558;
	voltage_A 7199.558+0.0j;
	voltage_B -3599.779-6235.000j;
	voltage_C -3599.779+6235.000j;
}
object transformer:181  {
	phases "AS";
	from N86131;
	to N86131_RA_M;
	configuration transformer_configuration:54;
}

object triplex_meter:182 {
	name N86131_RA_M;
	phases "AS";
	nominal_voltage 120;
	voltage_1 120;
	voltage_2 120;
	voltage_N 0;
}

object triplex_node:183 {
	name N86131_RA_TX;
	parent N86131_RA_M;
	phases AS;
	nominal_voltage 120;
	latitude 48N20'32.638";
	longitude 116W7'7.789";
	power_1 14.3027415448922+8.71818888726238j;
	voltage_1 120;
	voltage_2 120;
	voltage_N 0;
}

object transformer:184  {
	phases "A|B|C|N";
	from N78756;
	to N78756_C_M;
	configuration transformer_configuration:109;
}

object meter:185 {
	name N78756_C_M;
	phases "ABCN";
	nominal_voltage 7199.558;
	voltage_A 7199.558+0.0j;
	voltage_B -3599.779-6235.000j;
	voltage_C -3599.779+6235.000j;
}
object transformer:186  {
	phases "BS";
	from N86221;
	to N86221_RB_M;
	configuration transformer_configuration:70;
}

object triplex_meter:187 {
	name N86221_RB_M;
	phases "BS";
	nominal_voltage 120;
	voltage_1 -60.000-103.923j;
	voltage_2 -60.000-103.923j;
	voltage_N 0;
}

object triplex_node:188 {
	name N86221_RB_TX;
	parent N86221_RB_M;
	phases BS;
	nominal_voltage 120;
	latitude 48N20'36.285";
	longitude 116W7'5.819";
	power_1 17.4432194275046+10.5811866583482j;
	voltage_1 -60.000-103.923j;
	voltage_2 -60.000-103.923j;
	voltage_N 0;
}

object transformer:189  {
	phases "AS";
	from N86197;
	to N86197_RA_M;
	configuration transformer_configuration:57;
}

object triplex_meter:190 {
	name N86197_RA_M;
	phases "AS";
	nominal_voltage 120;
	voltage_1 120;
	voltage_2 120;
	voltage_N 0;
}

object triplex_node:191 {
	name N86197_RA_TX;
	parent N86197_RA_M;
	phases AS;
	nominal_voltage 120;
	latitude 48N20'34.960";
	longitude 116W7'5.697";
	power_1 27.2941201858762+16.637040845997j;
	voltage_1 120;
	voltage_2 120;
	voltage_N 0;
}

object transformer:192  {
	phases "AS";
	from N86047;
	to N86047_RA_M;
	configuration transformer_configuration:52;
}

object triplex_meter:193 {
	name N86047_RA_M;
	phases "AS";
	nominal_voltage 120;
	voltage_1 120;
	voltage_2 120;
	voltage_N 0;
}

object triplex_node:194 {
	name N86047_RA_TX;
	parent N86047_RA_M;
	phases AS;
	nominal_voltage 120;
	latitude 48N20'30.283";
	longitude 116W7'7.492";
	power_1 25.6565445023072+15.6388619946396j;
	voltage_1 120;
	voltage_2 120;
	voltage_N 0;
}

object transformer:195  {
	phases "AS";
	from N78615;
	to N78615_RA_M;
	configuration transformer_configuration:52;
}

object triplex_meter:196 {
	name N78615_RA_M;
	phases "AS";
	nominal_voltage 120;
	voltage_1 120;
	voltage_2 120;
	voltage_N 0;
}

object triplex_node:197 {
	name N78615_RA_TX;
	parent N78615_RA_M;
	phases AS;
	nominal_voltage 120;
	latitude 48N20'15.784";
	longitude 116W7'25.374";
	power_1 38.5660514178736+23.5078093134507j;
	voltage_1 120;
	voltage_2 120;
	voltage_N 0;
}

object transformer:198  {
	phases "BS";
	from N78427;
	to N78427_RB_M;
	configuration transformer_configuration:73;
}

object triplex_meter:199 {
	name N78427_RB_M;
	phases "BS";
	nominal_voltage 120;
	voltage_1 -60.000-103.923j;
	voltage_2 -60.000-103.923j;
	voltage_N 0;
}

object triplex_node:200 {
	name N78427_RB_TX;
	parent N78427_RB_M;
	phases BS;
	nominal_voltage 120;
	latitude 48N20'8.070";
	longitude 116W7'31.985";
	power_1 30.941659580714+18.7694408651626j;
	voltage_1 -60.000-103.923j;
	voltage_2 -60.000-103.923j;
	voltage_N 0;
}

object transformer:201  {
	phases "BS";
	from N78568;
	to N78568_RB_M;
	configuration transformer_configuration:69;
}

object triplex_meter:202 {
	name N78568_RB_M;
	phases "BS";
	nominal_voltage 120;
	voltage_1 -60.000-103.923j;
	voltage_2 -60.000-103.923j;
	voltage_N 0;
}

object triplex_node:203 {
	name N78568_RB_TX;
	parent N78568_RB_M;
	phases BS;
	nominal_voltage 120;
	latitude 48N20'12.760";
	longitude 116W7'38.437";
	power_1 60.4344714566433+36.6599999351633j;
	voltage_1 -60.000-103.923j;
	voltage_2 -60.000-103.923j;
	voltage_N 0;
}

object transformer:204  {
	phases "BS";
	from N78463;
	to N78463_RB_M;
	configuration transformer_configuration:76;
}

object triplex_meter:205 {
	name N78463_RB_M;
	phases "BS";
	nominal_voltage 120;
	voltage_1 -60.000-103.923j;
	voltage_2 -60.000-103.923j;
	voltage_N 0;
}

object triplex_node:206 {
	name N78463_RB_TX;
	parent N78463_RB_M;
	phases BS;
	nominal_voltage 120;
	latitude 48N20'9.194";
	longitude 116W7'27.835";
	power_1 110.155859411621+66.8213637275715j;
	voltage_1 -60.000-103.923j;
	voltage_2 -60.000-103.923j;
	voltage_N 0;
}

object transformer:207  {
	phases "AS";
	from N78490;
	to N78490_RA_M;
	configuration transformer_configuration:53;
}

object triplex_meter:208 {
	name N78490_RA_M;
	phases "AS";
	nominal_voltage 120;
	voltage_1 120;
	voltage_2 120;
	voltage_N 0;
}

object triplex_node:209 {
	name N78490_RA_TX;
	parent N78490_RA_M;
	phases AS;
	nominal_voltage 120;
	latitude 48N20'10.369";
	longitude 116W7'43.368";
	power_1 7.39622473049055+4.508344365356j;
	voltage_1 120;
	voltage_2 120;
	voltage_N 0;
}

object transformer:210  {
	phases "BS";
	from N78445;
	to N78445_RB_M;
	configuration transformer_configuration:71;
}

object triplex_meter:211 {
	name N78445_RB_M;
	phases "BS";
	nominal_voltage 120;
	voltage_1 -60.000-103.923j;
	voltage_2 -60.000-103.923j;
	voltage_N 0;
}

object triplex_node:212 {
	name N78445_RB_TX;
	parent N78445_RB_M;
	phases BS;
	nominal_voltage 120;
	latitude 48N20'8.888";
	longitude 116W7'46.403";
	power_1 16.9332953260562+10.2718629052738j;
	voltage_1 -60.000-103.923j;
	voltage_2 -60.000-103.923j;
	voltage_N 0;
}

object transformer:213  {
	phases "AS";
	from N78442;
	to N78442_RA_M;
	configuration transformer_configuration:51;
}

object triplex_meter:214 {
	name N78442_RA_M;
	phases "AS";
	nominal_voltage 120;
	voltage_1 120;
	voltage_2 120;
	voltage_N 0;
}

object triplex_node:215 {
	name N78442_RA_TX;
	parent N78442_RA_M;
	phases AS;
	nominal_voltage 120;
	latitude 48N20'8.482";
	longitude 116W7'40.053";
	power_1 15.5946241486553+9.50565166315219j;
	voltage_1 120;
	voltage_2 120;
	voltage_N 0;
}

object transformer:216  {
	phases "AS";
	from N78471;
	to N78471_RA_M;
	configuration transformer_configuration:59;
}

object triplex_meter:217 {
	name N78471_RA_M;
	phases "AS";
	nominal_voltage 120;
	voltage_1 120;
	voltage_2 120;
	voltage_N 0;
}

object triplex_node:218 {
	name N78471_RA_TX;
	parent N78471_RA_M;
	phases AS;
	nominal_voltage 120;
	latitude 48N20'9.493";
	longitude 116W7'43.498";
	power_1 27.3907495646891+16.6959409648242j;
	voltage_1 120;
	voltage_2 120;
	voltage_N 0;
}

object transformer:219  {
	phases "BS";
	from N78407;
	to N78407_RB_M;
	configuration transformer_configuration:69;
}

object triplex_meter:220 {
	name N78407_RB_M;
	phases "BS";
	nominal_voltage 120;
	voltage_1 -60.000-103.923j;
	voltage_2 -60.000-103.923j;
	voltage_N 0;
}

object triplex_node:221 {
	name N78407_RB_TX;
	parent N78407_RB_M;
	phases BS;
	nominal_voltage 120;
	latitude 48N20'7.450";
	longitude 116W7'46.304";
	power_1 21.6153783997201+13.1120493260335j;
	voltage_1 -60.000-103.923j;
	voltage_2 -60.000-103.923j;
	voltage_N 0;
}

object transformer:222  {
	phases "AS";
	from N78380;
	to N78380_RA_M;
	configuration transformer_configuration:51;
}

object triplex_meter:223 {
	name N78380_RA_M;
	phases "AS";
	nominal_voltage 120;
	voltage_1 120;
	voltage_2 120;
	voltage_N 0;
}

object triplex_node:224 {
	name N78380_RA_TX;
	parent N78380_RA_M;
	phases AS;
	nominal_voltage 120;
	latitude 48N20'7.094";
	longitude 116W7'44.008";
	power_1 14.7332926133002+8.98062986951825j;
	voltage_1 120;
	voltage_2 120;
	voltage_N 0;
}

object transformer:225  {
	phases "BS";
	from N78368;
	to N78368_RB_M;
	configuration transformer_configuration:70;
}

object triplex_meter:226 {
	name N78368_RB_M;
	phases "BS";
	nominal_voltage 120;
	voltage_1 -60.000-103.923j;
	voltage_2 -60.000-103.923j;
	voltage_N 0;
}

object triplex_node:227 {
	name N78368_RB_TX;
	parent N78368_RB_M;
	phases BS;
	nominal_voltage 120;
	latitude 48N20'6.495";
	longitude 116W7'29.176";
	power_1 27.0172322401373+16.3888540480128j;
	voltage_1 -60.000-103.923j;
	voltage_2 -60.000-103.923j;
	voltage_N 0;
}

object transformer:228  {
	phases "BS";
	from N78416;
	to N78416_RB_M;
	configuration transformer_configuration:77;
}

object triplex_meter:229 {
	name N78416_RB_M;
	phases "BS";
	nominal_voltage 120;
	voltage_1 -60.000-103.923j;
	voltage_2 -60.000-103.923j;
	voltage_N 0;
}

object triplex_node:230 {
	name N78416_RB_TX;
	parent N78416_RB_M;
	phases BS;
	nominal_voltage 120;
	latitude 48N20'7.661";
	longitude 116W7'44.349";
	power_1 21.0177371343281+12.7495156888155j;
	voltage_1 -60.000-103.923j;
	voltage_2 -60.000-103.923j;
	voltage_N 0;
}

object transformer:231  {
	phases "BS";
	from N78324;
	to N78324_RB_M;
	configuration transformer_configuration:69;
}

object triplex_meter:232 {
	name N78324_RB_M;
	phases "BS";
	nominal_voltage 120;
	voltage_1 -60.000-103.923j;
	voltage_2 -60.000-103.923j;
	voltage_N 0;
}

object triplex_node:233 {
	name N78324_RB_TX;
	parent N78324_RB_M;
	phases BS;
	nominal_voltage 120;
	latitude 48N20'5.764";
	longitude 116W7'48.632";
	power_1 18.0543626110086+10.9519106595286j;
	voltage_1 -60.000-103.923j;
	voltage_2 -60.000-103.923j;
	voltage_N 0;
}

object transformer:234  {
	phases "BS";
	from N78253;
	to N78253_RB_M;
	configuration transformer_configuration:71;
}

object triplex_meter:235 {
	name N78253_RB_M;
	phases "BS";
	nominal_voltage 120;
	voltage_1 -60.000-103.923j;
	voltage_2 -60.000-103.923j;
	voltage_N 0;
}

object triplex_node:236 {
	name N78253_RB_TX;
	parent N78253_RB_M;
	phases BS;
	nominal_voltage 120;
	latitude 48N20'4.496";
	longitude 116W7'44.765";
	power_1 14.0779125108755+8.53976644945407j;
	voltage_1 -60.000-103.923j;
	voltage_2 -60.000-103.923j;
	voltage_N 0;
}

object transformer:237  {
	phases "BS";
	from N69081;
	to N69081_RB_M;
	configuration transformer_configuration:70;
}

object triplex_meter:238 {
	name N69081_RB_M;
	phases "BS";
	nominal_voltage 120;
	voltage_1 -60.000-103.923j;
	voltage_2 -60.000-103.923j;
	voltage_N 0;
}

object triplex_node:239 {
	name N69081_RB_TX;
	parent N69081_RB_M;
	phases BS;
	nominal_voltage 120;
	latitude 48N20'2.860";
	longitude 116W7'50.358";
	power_1 18.5434353850441+11.2485858422891j;
	voltage_1 -60.000-103.923j;
	voltage_2 -60.000-103.923j;
	voltage_N 0;
}

object transformer:240  {
	phases "BS";
	from N78138;
	to N78138_RB_M;
	configuration transformer_configuration:69;
}

object triplex_meter:241 {
	name N78138_RB_M;
	phases "BS";
	nominal_voltage 120;
	voltage_1 -60.000-103.923j;
	voltage_2 -60.000-103.923j;
	voltage_N 0;
}

object triplex_node:242 {
	name N78138_RB_TX;
	parent N78138_RB_M;
	phases BS;
	nominal_voltage 120;
	latitude 48N20'1.524";
	longitude 116W7'46.301";
	power_1 14.1134283604195+8.56131062797663j;
	voltage_1 -60.000-103.923j;
	voltage_2 -60.000-103.923j;
	voltage_N 0;
}

object transformer:243  {
	phases "BS";
	from N69053;
	to N69053_RB_M;
	configuration transformer_configuration:69;
}

object triplex_meter:244 {
	name N69053_RB_M;
	phases "BS";
	nominal_voltage 120;
	voltage_1 -60.000-103.923j;
	voltage_2 -60.000-103.923j;
	voltage_N 0;
}

object triplex_node:245 {
	name N69053_RB_TX;
	parent N69053_RB_M;
	phases BS;
	nominal_voltage 120;
	latitude 48N20'1.657";
	longitude 116W7'50.301";
	power_1 14.0609999477662+8.52950716286566j;
	voltage_1 -60.000-103.923j;
	voltage_2 -60.000-103.923j;
	voltage_N 0;
}

object transformer:246  {
	phases "BS";
	from N78115;
	to N78115_RB_M;
	configuration transformer_configuration:69;
}

object triplex_meter:247 {
	name N78115_RB_M;
	phases "BS";
	nominal_voltage 120;
	voltage_1 -60.000-103.923j;
	voltage_2 -60.000-103.923j;
	voltage_N 0;
}

object triplex_node:248 {
	name N78115_RB_TX;
	parent N78115_RB_M;
	phases BS;
	nominal_voltage 120;
	latitude 48N20'0.863";
	longitude 116W7'46.757";
	power_1 19.412658585602+11.7758631015757j;
	voltage_1 -60.000-103.923j;
	voltage_2 -60.000-103.923j;
	voltage_N 0;
}

object transformer:249  {
	phases "BS";
	from N69005;
	to N69005_RB_M;
	configuration transformer_configuration:69;
}

object triplex_meter:250 {
	name N69005_RB_M;
	phases "BS";
	nominal_voltage 120;
	voltage_1 -60.000-103.923j;
	voltage_2 -60.000-103.923j;
	voltage_N 0;
}

object triplex_node:251 {
	name N69005_RB_TX;
	parent N69005_RB_M;
	phases BS;
	nominal_voltage 120;
	latitude 48N20'0.717";
	longitude 116W7'50.302";
	power_1 12.8833305086841+7.8151241208734j;
	voltage_1 -60.000-103.923j;
	voltage_2 -60.000-103.923j;
	voltage_N 0;
}

object transformer:252  {
	phases "AS";
	from N78122;
	to N78122_RA_M;
	configuration transformer_configuration:51;
}

object triplex_meter:253 {
	name N78122_RA_M;
	phases "AS";
	nominal_voltage 120;
	voltage_1 120;
	voltage_2 120;
	voltage_N 0;
}

object triplex_node:254 {
	name N78122_RA_TX;
	parent N78122_RA_M;
	phases AS;
	nominal_voltage 120;
	latitude 48N20'0.659";
	longitude 116W7'33.536";
	power_1 20.6673456021806+12.5977122772304j;
	voltage_1 120;
	voltage_2 120;
	voltage_N 0;
}

object transformer:255  {
	phases "BS";
	from N78077;
	to N78077_RB_M;
	configuration transformer_configuration:71;
}

object triplex_meter:256 {
	name N78077_RB_M;
	phases "BS";
	nominal_voltage 120;
	voltage_1 -60.000-103.923j;
	voltage_2 -60.000-103.923j;
	voltage_N 0;
}

object triplex_node:257 {
	name N78077_RB_TX;
	parent N78077_RB_M;
	phases BS;
	nominal_voltage 120;
	latitude 48N19'59.848";
	longitude 116W7'46.891";
	power_1 10.9618936646227+6.64956623841148j;
	voltage_1 -60.000-103.923j;
	voltage_2 -60.000-103.923j;
	voltage_N 0;
}

object transformer:258  {
	phases "BS";
	from N68983;
	to N68983_RB_M;
	configuration transformer_configuration:71;
}

object triplex_meter:259 {
	name N68983_RB_M;
	phases "BS";
	nominal_voltage 120;
	voltage_1 -60.000-103.923j;
	voltage_2 -60.000-103.923j;
	voltage_N 0;
}

object triplex_node:260 {
	name N68983_RB_TX;
	parent N68983_RB_M;
	phases BS;
	nominal_voltage 120;
	latitude 48N19'59.486";
	longitude 116W7'50.291";
	power_1 11.1584031739158+6.76877036850984j;
	voltage_1 -60.000-103.923j;
	voltage_2 -60.000-103.923j;
	voltage_N 0;
}

object transformer:261  {
	phases "BS";
	from N78073;
	to N78073_RB_M;
	configuration transformer_configuration:69;
}

object triplex_meter:262 {
	name N78073_RB_M;
	phases "BS";
	nominal_voltage 120;
	voltage_1 -60.000-103.923j;
	voltage_2 -60.000-103.923j;
	voltage_N 0;
}

object triplex_node:263 {
	name N78073_RB_TX;
	parent N78073_RB_M;
	phases BS;
	nominal_voltage 120;
	latitude 48N19'59.516";
	longitude 116W7'25.249";
	power_1 32.0074892661539+19.4159810806612j;
	voltage_1 -60.000-103.923j;
	voltage_2 -60.000-103.923j;
	voltage_N 0;
}

object transformer:264  {
	phases "BS";
	from N78038;
	to N78038_RB_M;
	configuration transformer_configuration:69;
}

object triplex_meter:265 {
	name N78038_RB_M;
	phases "BS";
	nominal_voltage 120;
	voltage_1 -60.000-103.923j;
	voltage_2 -60.000-103.923j;
	voltage_N 0;
}

object triplex_node:266 {
	name N78038_RB_TX;
	parent N78038_RB_M;
	phases BS;
	nominal_voltage 120;
	latitude 48N19'58.917";
	longitude 116W7'46.700";
	power_1 13.2373639408364+8.02988343434005j;
	voltage_1 -60.000-103.923j;
	voltage_2 -60.000-103.923j;
	voltage_N 0;
}

object transformer:267  {
	phases "BS";
	from N68952;
	to N68952_RB_M;
	configuration transformer_configuration:69;
}

object triplex_meter:268 {
	name N68952_RB_M;
	phases "BS";
	nominal_voltage 120;
	voltage_1 -60.000-103.923j;
	voltage_2 -60.000-103.923j;
	voltage_N 0;
}

object triplex_node:269 {
	name N68952_RB_TX;
	parent N68952_RB_M;
	phases BS;
	nominal_voltage 120;
	latitude 48N19'58.583";
	longitude 116W7'50.298";
	power_1 11.093994633183+6.72969966859011j;
	voltage_1 -60.000-103.923j;
	voltage_2 -60.000-103.923j;
	voltage_N 0;
}

object transformer:270  {
	phases "AS";
	from N68769;
	to N68769_RA_M;
	configuration transformer_configuration:59;
}

object triplex_meter:271 {
	name N68769_RA_M;
	phases "AS";
	nominal_voltage 120;
	voltage_1 120;
	voltage_2 120;
	voltage_N 0;
}

object triplex_node:272 {
	name N68769_RA_TX;
	parent N68769_RA_M;
	phases AS;
	nominal_voltage 120;
	latitude 48N19'51.501";
	longitude 116W7'58.853";
	power_1 21.997535076348+13.4085248795026j;
	voltage_1 120;
	voltage_2 120;
	voltage_N 0;
}

object transformer:273  {
	phases "A|B|C|N";
	from N68626;
	to N68626_C_M;
	configuration transformer_configuration:110;
}

object meter:274 {
	name N68626_C_M;
	phases "ABCN";
	nominal_voltage 7199.558;
	voltage_A 7199.558+0.0j;
	voltage_B -3599.779-6235.000j;
	voltage_C -3599.779+6235.000j;
}
object transformer:275  {
	phases "BS";
	from N59103;
	to N59103_RB_M;
	configuration transformer_configuration:69;
}

object triplex_meter:276 {
	name N59103_RB_M;
	phases "BS";
	nominal_voltage 120;
	voltage_1 -60.000-103.923j;
	voltage_2 -60.000-103.923j;
	voltage_N 0;
}

object triplex_node:277 {
	name N59103_RB_TX;
	parent N59103_RB_M;
	phases BS;
	nominal_voltage 120;
	latitude 48N19'42.187";
	longitude 116W8'30.900";
	power_1 28.2598390344571+17.1426285727372j;
	voltage_1 -60.000-103.923j;
	voltage_2 -60.000-103.923j;
	voltage_N 0;
}

object transformer:278  {
	phases "AS";
	from N59009;
	to N59009_RA_M;
	configuration transformer_configuration:56;
}

object triplex_meter:279 {
	name N59009_RA_M;
	phases "AS";
	nominal_voltage 120;
	voltage_1 120;
	voltage_2 120;
	voltage_N 0;
}

object triplex_node:280 {
	name N59009_RA_TX;
	parent N59009_RA_M;
	phases AS;
	nominal_voltage 120;
	latitude 48N19'38.869";
	longitude 116W8'28.760";
	power_1 60.9353558184879+37.1429449571393j;
	voltage_1 120;