//*********************************************
// $Id: R5-12.47-3.glm 1132 2008-11-18 22:36:10Z dchassin $ 
//*********************************************

clock { 
	 timezone EST+5EDT;
	 timestamp '2000-01-01 0:00:00';
}

//*********************************************
// modules
module powerflow;


object triplex_line_conductor: {
	name 1/0 AA triplex;
	resistance 0.97;
	geometric_mean_radius 0.0111;
}

object triplex_line_configuration:1 {
	conductor_1 1/0 AA triplex;
	conductor_2 1/0 AA triplex;
	conductor_N 1/0 AA triplex;
	insulation_thickness 0.08;
	diameter 0.368;
}

object transformer:115  {
	phases "BS";
	from 100059666B;
	to 100059666B_UB_M;
	configuration transformer_configuration:62;
}

object triplex_meter:116 {
	name 100059666B_UB_M;
	phases "BS";
	nominal_voltage 120;
	voltage_1 -60.000-103.923j;
	voltage_2 -60.000-103.923j;
	voltage_N 0;
}

object triplex_node:117 {
	name 100059666B_UB_TX;
	parent 100059666B_UB_M;
	phases BS;
	nominal_voltage 120;
	latitude 52N24'35.322";
	longitude 120W36'47.938";
	power_1 12.4+6.6j;
	voltage_1 -60.000-103.923j;
	voltage_2 -60.000-103.923j;
	voltage_N 0;
}

object transformer:118  {
	phases "AS";
	from 100059780ABC;
	to 100059780ABC_UA_M;
	configuration transformer_configuration:51;
}

object triplex_meter:119 {
	name 100059780ABC_UA_M;
	phases "AS";
	nominal_voltage 120;
	voltage_1 120;
	voltage_2 120;
	voltage_N 0;
}

object triplex_node:120 {
	name 100059780ABC_UA_TX;
	parent 100059780ABC_UA_M;
	phases AS;
	nominal_voltage 120;
	latitude 52N25'37.501";
	longitude 120W35'12.473";
	power_1 0+0j;
	voltage_1 120;
	voltage_2 120;
	voltage_N 0;
}

object transformer:121  {
	phases "CS";
	from 100059780ABC;
	to 100059780ABC_UC_M;
	configuration transformer_configuration:74;
}

object triplex_meter:122 {
	name 100059780ABC_UC_M;
	phases "CS";
	nominal_voltage 120;
	voltage_1 -60.000+103.923j;
	voltage_2 -60.000+103.923j;
	voltage_N 0;
}

object triplex_node:123 {
	name 100059780ABC_UC_TX;
	parent 100059780ABC_UC_M;
	phases AS;
	nominal_voltage 120;
	latitude 52N25'37.501";
	longitude 120W35'12.473";
	power_1 0+0j;
	voltage_1 -60.000+103.923j;
	voltage_2 -60.000+103.923j;
	voltage_N 0;
}

object transformer:124  {
	phases "BS";
	from 100416555B;
	to 100416555B_UB_M;
	configuration transformer_configuration:63;
}

object triplex_meter:125 {
	name 100416555B_UB_M;
	phases "BS";
	nominal_voltage 120;
	voltage_1 -60.000-103.923j;
	voltage_2 -60.000-103.923j;
	voltage_N 0;
}

object triplex_node:126 {
	name 100416555B_UB_TX;
	parent 100416555B_UB_M;
	phases BS;
	nominal_voltage 120;
	latitude 52N24'37.586";
	longitude 120W35'24.573";
	power_1 10.2+5.8j;
	voltage_1 -60.000-103.923j;
	voltage_2 -60.000-103.923j;
	voltage_N 0;
}

object transformer:127  {
	phases "AS";
	from 100419452A;
	to 100419452A_UA_M;
	configuration transformer_configuration:52;
}

object triplex_meter:128 {
	name 100419452A_UA_M;
	phases "AS";
	nominal_voltage 120;
	voltage_1 120;
	voltage_2 120;
	voltage_N 0;
}

object triplex_node:129 {
	name 100419452A_UA_TX;
	parent 100419452A_UA_M;
	phases AS;
	nominal_voltage 120;
	latitude 52N23'57.923";
	longitude 120W38'4.719";
	power_1 6.3+3.1j;
	voltage_1 120;
	voltage_2 120;
	voltage_N 0;
}

object transformer:130  {
	phases "BS";
	from 100440072B;
	to 100440072B_UB_M;
	configuration transformer_configuration:63;
}

object triplex_meter:131 {
	name 100440072B_UB_M;
	phases "BS";
	nominal_voltage 120;
	voltage_1 -60.000-103.923j;
	voltage_2 -60.000-103.923j;
	voltage_N 0;
}

object triplex_node:132 {
	name 100440072B_UB_TX;
	parent 100440072B_UB_M;
	phases BS;
	nominal_voltage 120;
	latitude 52N24'34.179";
	longitude 120W36'33.533";
	power_1 13.1+7.4j;
	voltage_1 -60.000-103.923j;
	voltage_2 -60.000-103.923j;
	voltage_N 0;
}

object transformer:133  {
	phases "BS";
	from 100447415B;
	to 100447415B_UB_M;
	configuration transformer_configuration:64;
}

object triplex_meter:134 {
	name 100447415B_UB_M;
	phases "BS";
	nominal_voltage 120;
	voltage_1 -60.000-103.923j;
	voltage_2 -60.000-103.923j;
	voltage_N 0;
}

object triplex_node:135 {
	name 100447415B_UB_TX;
	parent 100447415B_UB_M;
	phases BS;
	nominal_voltage 120;
	latitude 52N23'26.801";
	longitude 120W36'28.526";
	power_1 10.6+5.1j;
	voltage_1 -60.000-103.923j;
	voltage_2 -60.000-103.923j;
	voltage_N 0;
}

object transformer:136  {
	phases "AS";
	from 100448524ABC;
	to 100448524ABC_UA_M;
	configuration transformer_configuration:53;
}

object triplex_meter:137 {
	name 100448524ABC_UA_M;
	phases "AS";
	nominal_voltage 120;
	voltage_1 120;
	voltage_2 120;
	voltage_N 0;
}

object triplex_node:138 {
	name 100448524ABC_UA_TX;
	parent 100448524ABC_UA_M;
	phases AS;
	nominal_voltage 120;
	latitude 52N23'56.571";
	longitude 120W37'15.812";
	power_1 13.1+7.4j;
	voltage_1 120;
	voltage_2 120;
	voltage_N 0;
}

object transformer:139  {
	phases "CS";
	from 100448524ABC;
	to 100448524ABC_UC_M;
	configuration transformer_configuration:76;
}

object triplex_meter:140 {
	name 100448524ABC_UC_M;
	phases "CS";
	nominal_voltage 120;
	voltage_1 -60.000+103.923j;
	voltage_2 -60.000+103.923j;
	voltage_N 0;
}

object triplex_node:141 {
	name 100448524ABC_UC_TX;
	parent 100448524ABC_UC_M;
	phases AS;
	nominal_voltage 120;
	latitude 52N23'56.571";
	longitude 120W37'15.812";
	power_1 0+0j;
	voltage_1 -60.000+103.923j;
	voltage_2 -60.000+103.923j;
	voltage_N 0;
}

object transformer:142  {
	phases "BS";
	from 100448969B;
	to 100448969B_UB_M;
	configuration transformer_configuration:65;
}

object triplex_meter:143 {
	name 100448969B_UB_M;
	phases "BS";
	nominal_voltage 120;
	voltage_1 -60.000-103.923j;
	voltage_2 -60.000-103.923j;
	voltage_N 0;
}

object triplex_node:144 {
	name 100448969B_UB_TX;
	parent 100448969B_UB_M;
	phases BS;
	nominal_voltage 120;
	latitude 52N25'24.388";
	longitude 120W34'22.884";
	power_1 11.2+5.4j;
	voltage_1 -60.000-103.923j;
	voltage_2 -60.000-103.923j;
	voltage_N 0;
}

object transformer:145  {
	phases "AS";
	from 100454272A;
	to 100454272A_UA_M;
	configuration transformer_configuration:51;
}

object triplex_meter:146 {
	name 100454272A_UA_M;
	phases "AS";
	nominal_voltage 120;
	voltage_1 120;
	voltage_2 120;
	voltage_N 0;
}

object triplex_node:147 {
	name 100454272A_UA_TX;
	parent 100454272A_UA_M;
	phases AS;
	nominal_voltage 120;
	latitude 52N26'34.835";
	longitude 120W41'34.037";
	power_1 0.4+0.2j;
	voltage_1 120;
	voltage_2 120;
	voltage_N 0;
}

object transformer:148  {
	phases "AS";
	from 100460932A;
	to 100460932A_UA_M;
	configuration transformer_configuration:52;
}

object triplex_meter:149 {
	name 100460932A_UA_M;
	phases "AS";
	nominal_voltage 120;
	voltage_1 120;
	voltage_2 120;
	voltage_N 0;
}

object triplex_node:150 {
	name 100460932A_UA_TX;
	parent 100460932A_UA_M;
	phases AS;
	nominal_voltage 120;
	latitude 52N24'9.987";
	longitude 120W38'20.547";
	power_1 4.8+2.8j;
	voltage_1 120;
	voltage_2 120;
	voltage_N 0;
}

object transformer:151  {
	phases "A|B|C|N";
	from 100461027AC;
	to 100461027AC_U_M;
	configuration transformer_configuration:93;
}

object meter:152 {
	name 100461027AC_U_M;
	phases "ABCN";
	nominal_voltage 7967.434;
	voltage_A 7967.434+0.0j;
	voltage_B -3983.717-6900.000j;
	voltage_C -3983.717+6900.000j;
}
object transformer:153  {
	phases "A|B|C|N";
	from 100461027B;
	to 100461027B_U_M;
	configuration transformer_configuration:93;
}

object meter:154 {
	name 100461027B_U_M;
	phases "ABCN";
	nominal_voltage 7967.434;
	voltage_A 7967.434+0.0j;
	voltage_B -3983.717-6900.000j;
	voltage_C -3983.717+6900.000j;
}
object transformer:155  {
	phases "BS";
	from 100462885B;
	to 100462885B_UB_M;
	configuration transformer_configuration:65;
}

object triplex_meter:156 {
	name 100462885B_UB_M;
	phases "BS";
	nominal_voltage 120;
	voltage_1 -60.000-103.923j;
	voltage_2 -60.000-103.923j;
	voltage_N 0;
}

object triplex_node:157 {
	name 100462885B_UB_TX;
	parent 100462885B_UB_M;
	phases BS;
	nominal_voltage 120;
	latitude 52N24'5.304";
	longitude 120W37'57.375";
	power_1 5.1+3.1j;
	voltage_1 -60.000-103.923j;
	voltage_2 -60.000-103.923j;
	voltage_N 0;
}

object transformer:158  {
	phases "AS";
	from 100463898ABC;
	to 100463898ABC_UA_M;
	configuration transformer_configuration:52;
}

object triplex_meter:159 {
	name 100463898ABC_UA_M;
	phases "AS";
	nominal_voltage 120;
	voltage_1 120;
	voltage_2 120;
	voltage_N 0;
}

object triplex_node:160 {
	name 100463898ABC_UA_TX;
	parent 100463898ABC_UA_M;
	phases AS;
	nominal_voltage 120;
	latitude 52N24'9.217";
	longitude 120W37'51.603";
	power_1 39.3+21.8j;
	voltage_1 120;
	voltage_2 120;
	voltage_N 0;
}

object transformer:161  {
	phases "CS";
	from 100463898ABC;
	to 100463898ABC_UC_M;
	configuration transformer_configuration:75;
}

object triplex_meter:162 {
	name 100463898ABC_UC_M;
	phases "CS";
	nominal_voltage 120;
	voltage_1 -60.000+103.923j;
	voltage_2 -60.000+103.923j;
	voltage_N 0;
}

object triplex_node:163 {
	name 100463898ABC_UC_TX;
	parent 100463898ABC_UC_M;
	phases AS;
	nominal_voltage 120;
	latitude 52N24'9.217";
	longitude 120W37'51.603";
	power_1 0+0j;
	voltage_1 -60.000+103.923j;
	voltage_2 -60.000+103.923j;
	voltage_N 0;
}

object transformer:164  {
	phases "AS";
	from 100463963ABC;
	to 100463963ABC_UA_M;
	configuration transformer_configuration:52;
}

object triplex_meter:165 {
	name 100463963ABC_UA_M;
	phases "AS";
	nominal_voltage 120;
	voltage_1 120;
	voltage_2 120;
	voltage_N 0;
}

object triplex_node:166 {
	name 100463963ABC_UA_TX;
	parent 100463963ABC_UA_M;
	phases AS;
	nominal_voltage 120;
	latitude 52N24'10.393";
	longitude 120W37'58.039";
	power_1 26.7+15.2j;
	voltage_1 120;
	voltage_2 120;
	voltage_N 0;
}

object transformer:167  {
	phases "CS";
	from 100463963ABC;
	to 100463963ABC_UC_M;
	configuration transformer_configuration:75;
}

object triplex_meter:168 {
	name 100463963ABC_UC_M;
	phases "CS";
	nominal_voltage 120;
	voltage_1 -60.000+103.923j;
	voltage_2 -60.000+103.923j;
	voltage_N 0;
}

object triplex_node:169 {
	name 100463963ABC_UC_TX;
	parent 100463963ABC_UC_M;
	phases AS;
	nominal_voltage 120;
	latitude 52N24'10.393";
	longitude 120W37'58.039";
	power_1 0+0j;
	voltage_1 -60.000+103.923j;
	voltage_2 -60.000+103.923j;
	voltage_N 0;
}

object transformer:170  {
	phases "A|B|C|N";
	from 100464141AC;
	to 100464141AC_U_M;
	configuration transformer_configuration:93;
}

object meter:171 {
	name 100464141AC_U_M;
	phases "ABCN";
	nominal_voltage 7967.434;
	voltage_A 7967.434+0.0j;
	voltage_B -3983.717-6900.000j;
	voltage_C -3983.717+6900.000j;
}
object transformer:172  {
	phases "A|B|C|N";
	from 100464141B;
	to 100464141B_U_M;
	configuration transformer_configuration:93;
}

object meter:173 {
	name 100464141B_U_M;
	phases "ABCN";
	nominal_voltage 7967.434;
	voltage_A 7967.434+0.0j;
	voltage_B -3983.717-6900.000j;
	voltage_C -3983.717+6900.000j;
}
object transformer:174  {
	phases "AS";
	from 100464158AC;
	to 100464158AC_UA_M;
	configuration transformer_configuration:52;
}

object triplex_meter:175 {
	name 100464158AC_UA_M;
	phases "AS";
	nominal_voltage 120;
	voltage_1 120;
	voltage_2 120;
	voltage_N 0;
}

object triplex_node:176 {
	name 100464158AC_UA_TX;
	parent 100464158AC_UA_M;
	phases AS;
	nominal_voltage 120;
	latitude 52N24'18.773";
	longitude 120W38'8.585";
	power_1 23.1+13.1j;
	voltage_1 120;
	voltage_2 120;
	voltage_N 0;
}

object transformer:177  {
	phases "CS";
	from 100464158AC;
	to 100464158AC_UC_M;
	configuration transformer_configuration:75;
}

object triplex_meter:178 {
	name 100464158AC_UC_M;
	phases "CS";
	nominal_voltage 120;
	voltage_1 -60.000+103.923j;
	voltage_2 -60.000+103.923j;
	voltage_N 0;
}

object triplex_node:179 {
	name 100464158AC_UC_TX;
	parent 100464158AC_UC_M;
	phases AS;
	nominal_voltage 120;
	latitude 52N24'18.773";
	longitude 120W38'8.585";
	power_1 0+0j;
	voltage_1 -60.000+103.923j;
	voltage_2 -60.000+103.923j;
	voltage_N 0;
}

object transformer:180  {
	phases "AS";
	from 100464312A;
	to 100464312A_UA_M;
	configuration transformer_configuration:52;
}

object triplex_meter:181 {
	name 100464312A_UA_M;
	phases "AS";
	nominal_voltage 120;
	voltage_1 120;
	voltage_2 120;
	voltage_N 0;
}

object triplex_node:182 {
	name 100464312A_UA_TX;
	parent 100464312A_UA_M;
	phases AS;
	nominal_voltage 120;
	latitude 52N24'18.879";
	longitude 120W38'15.269";
	power_1 49.5+28.1j;
	voltage_1 120;
	voltage_2 120;
	voltage_N 0;
}

object transformer:183  {
	phases "AS";
	from 100464354AC;
	to 100464354AC_UA_M;
	configuration transformer_configuration:52;
}

object triplex_meter:184 {
	name 100464354AC_UA_M;
	phases "AS";
	nominal_voltage 120;
	voltage_1 120;
	voltage_2 120;
	voltage_N 0;
}

object triplex_node:185 {
	name 100464354AC_UA_TX;
	parent 100464354AC_UA_M;
	phases AS;
	nominal_voltage 120;
	latitude 52N24'15.760";
	longitude 120W38'19.586";
	power_1 35.6+17.8j;
	voltage_1 120;
	voltage_2 120;
	voltage_N 0;
}

object transformer:186  {
	phases "CS";
	from 100464354AC;
	to 100464354AC_UC_M;
	configuration transformer_configuration:75;
}

object triplex_meter:187 {
	name 100464354AC_UC_M;
	phases "CS";
	nominal_voltage 120;
	voltage_1 -60.000+103.923j;
	voltage_2 -60.000+103.923j;
	voltage_N 0;
}

object triplex_node:188 {
	name 100464354AC_UC_TX;
	parent 100464354AC_UC_M;
	phases AS;
	nominal_voltage 120;
	latitude 52N24'15.760";
	longitude 120W38'19.586";
	power_1 0+0j;
	voltage_1 -60.000+103.923j;
	voltage_2 -60.000+103.923j;
	voltage_N 0;
}

object transformer:189  {
	phases "BS";
	from 100465806B;
	to 100465806B_UB_M;
	configuration transformer_configuration:65;
}

object triplex_meter:190 {
	name 100465806B_UB_M;
	phases "BS";
	nominal_voltage 120;
	voltage_1 -60.000-103.923j;
	voltage_2 -60.000-103.923j;
	voltage_N 0;
}

object triplex_node:191 {
	name 100465806B_UB_TX;
	parent 100465806B_UB_M;
	phases BS;
	nominal_voltage 120;
	latitude 52N24'4.115";
	longitude 120W37'49.021";
	power_1 5.6+3.5j;
	voltage_1 -60.000-103.923j;
	voltage_2 -60.000-103.923j;
	voltage_N 0;
}

object transformer:192  {
	phases "BS";
	from 100471910B;
	to 100471910B_UB_M;
	configuration transformer_configuration:65;
}

object triplex_meter:193 {
	name 100471910B_UB_M;
	phases "BS";
	nominal_voltage 120;
	voltage_1 -60.000-103.923j;
	voltage_2 -60.000-103.923j;
	voltage_N 0;
}

object triplex_node:194 {
	name 100471910B_UB_TX;
	parent 100471910B_UB_M;
	phases BS;
	nominal_voltage 120;
	latitude 52N24'42.443";
	longitude 120W34'30.021";
	power_1 10.9+6.2j;
	voltage_1 -60.000-103.923j;
	voltage_2 -60.000-103.923j;
	voltage_N 0;
}

object transformer:195  {
	phases "AS";
	from 100472140ABC;
	to 100472140ABC_UA_M;
	configuration transformer_configuration:51;
}

object triplex_meter:196 {
	name 100472140ABC_UA_M;
	phases "AS";
	nominal_voltage 120;
	voltage_1 120;
	voltage_2 120;
	voltage_N 0;
}

object triplex_node:197 {
	name 100472140ABC_UA_TX;
	parent 100472140ABC_UA_M;
	phases AS;
	nominal_voltage 120;
	latitude 52N23'57.702";
	longitude 120W37'19.099";
	power_1 5.3+3j;
	voltage_1 120;
	voltage_2 120;
	voltage_N 0;
}

object transformer:198  {
	phases "CS";
	from 100472140ABC;
	to 100472140ABC_UC_M;
	configuration transformer_configuration:74;
}

object triplex_meter:199 {
	name 100472140ABC_UC_M;
	phases "CS";
	nominal_voltage 120;
	voltage_1 -60.000+103.923j;
	voltage_2 -60.000+103.923j;
	voltage_N 0;
}

object triplex_node:200 {
	name 100472140ABC_UC_TX;
	parent 100472140ABC_UC_M;
	phases AS;
	nominal_voltage 120;
	latitude 52N23'57.702";
	longitude 120W37'19.099";
	power_1 0+0j;
	voltage_1 -60.000+103.923j;
	voltage_2 -60.000+103.923j;
	voltage_N 0;
}

object transformer:201  {
	phases "AS";
	from 100488527ABC;
	to 100488527ABC_UA_M;
	configuration transformer_configuration:51;
}

object triplex_meter:202 {
	name 100488527ABC_UA_M;
	phases "AS";
	nominal_voltage 120;
	voltage_1 120;
	voltage_2 120;
	voltage_N 0;
}

object triplex_node:203 {
	name 100488527ABC_UA_TX;
	parent 100488527ABC_UA_M;
	phases AS;
	nominal_voltage 120;
	latitude 52N25'54.315";
	longitude 120W38'7.300";
	power_1 0+0j;
	voltage_1 120;
	voltage_2 120;
	voltage_N 0;
}

object transformer:204  {
	phases "CS";
	from 100488527ABC;
	to 100488527ABC_UC_M;
	configuration transformer_configuration:74;
}

object triplex_meter:205 {
	name 100488527ABC_UC_M;
	phases "CS";
	nominal_voltage 120;
	voltage_1 -60.000+103.923j;
	voltage_2 -60.000+103.923j;
	voltage_N 0;
}

object triplex_node:206 {
	name 100488527ABC_UC_TX;
	parent 100488527ABC_UC_M;
	phases AS;
	nominal_voltage 120;
	latitude 52N25'54.315";
	longitude 120W38'7.300";
	power_1 11.3+5.5j;
	voltage_1 -60.000+103.923j;
	voltage_2 -60.000+103.923j;
	voltage_N 0;
}

object transformer:207  {
	phases "BS";
	from 100490474ABC;
	to 100490474ABC_UB_M;
	configuration transformer_configuration:66;
}

object triplex_meter:208 {
	name 100490474ABC_UB_M;
	phases "BS";
	nominal_voltage 120;
	voltage_1 -60.000-103.923j;
	voltage_2 -60.000-103.923j;
	voltage_N 0;
}

object triplex_node:209 {
	name 100490474ABC_UB_TX;
	parent 100490474ABC_UB_M;
	phases BS;
	nominal_voltage 120;
	latitude 52N25'46.724";
	longitude 120W37'24.864";
	power_1 20.7+11.9j;
	voltage_1 -60.000-103.923j;
	voltage_2 -60.000-103.923j;
	voltage_N 0;
}

object transformer:210  {
	phases "A|B|C|N";
	from 100490700ABC;
	to 100490700ABC_U_M;
	configuration transformer_configuration:95;
}

object meter:211 {
	name 100490700ABC_U_M;
	phases "ABCN";
	nominal_voltage 7967.434;
	voltage_A 7967.434+0.0j;
	voltage_B -3983.717-6900.000j;
	voltage_C -3983.717+6900.000j;
}
object transformer:212  {
	phases "AS";
	from 100497669ABC;
	to 100497669ABC_UA_M;
	configuration transformer_configuration:51;
}

object triplex_meter:213 {
	name 100497669ABC_UA_M;
	phases "AS";
	nominal_voltage 120;
	voltage_1 120;
	voltage_2 120;
	voltage_N 0;
}

object triplex_node:214 {
	name 100497669ABC_UA_TX;
	parent 100497669ABC_UA_M;
	phases AS;
	nominal_voltage 120;
	latitude 52N23'40.771";
	longitude 120W36'56.636";
	power_1 8.9+5.1j;
	voltage_1 120;
	voltage_2 120;
	voltage_N 0;
}

object transformer:215  {
	phases "CS";
	from 100497669ABC;
	to 100497669ABC_UC_M;
	configuration transformer_configuration:74;
}

object triplex_meter:216 {
	name 100497669ABC_UC_M;
	phases "CS";
	nominal_voltage 120;
	voltage_1 -60.000+103.923j;
	voltage_2 -60.000+103.923j;
	voltage_N 0;
}

object triplex_node:217 {
	name 100497669ABC_UC_TX;
	parent 100497669ABC_UC_M;
	phases AS;
	nominal_voltage 120;
	latitude 52N23'40.771";
	longitude 120W36'56.636";
	power_1 0+0j;
	voltage_1 -60.000+103.923j;
	voltage_2 -60.000+103.923j;
	voltage_N 0;
}

object transformer:218  {
	phases "AS";
	from 100512453A;
	to 100512453A_UA_M;
	configuration transformer_configuration:55;
}

object triplex_meter:219 {
	name 100512453A_UA_M;
	phases "AS";
	nominal_voltage 120;
	voltage_1 120;
	voltage_2 120;
	voltage_N 0;
}

object triplex_node:220 {
	name 100512453A_UA_TX;
	parent 100512453A_UA_M;
	phases AS;
	nominal_voltage 120;
	latitude 52N24'11.766";
	longitude 120W38'5.887";
	power_1 36.4+22.6j;
	voltage_1 120;
	voltage_2 120;
	voltage_N 0;
}

object transformer:221  {
	phases "BS";
	from 100519257B;
	to 100519257B_UB_M;
	configuration transformer_configuration:65;
}

object triplex_meter:222 {
	name 100519257B_UB_M;
	phases "BS";
	nominal_voltage 120;
	voltage_1 -60.000-103.923j;
	voltage_2 -60.000-103.923j;
	voltage_N 0;
}

object triplex_node:223 {
	name 100519257B_UB_TX;
	parent 100519257B_UB_M;
	phases BS;
	nominal_voltage 120;
	latitude 52N25'30.172";
	longitude 120W34'32.384";
	power_1 11.9+5.8j;
	voltage_1 -60.000-103.923j;
	voltage_2 -60.000-103.923j;
	voltage_N 0;
}

object transformer:224  {
	phases "AS";
	from 100544338A;
	to 100544338A_UA_M;
	configuration transformer_configuration:52;
}

object triplex_meter:225 {
	name 100544338A_UA_M;
	phases "AS";
	nominal_voltage 120;
	voltage_1 120;
	voltage_2 120;
	voltage_N 0;
}

object triplex_node:226 {
	name 100544338A_UA_TX;
	parent 100544338A_UA_M;
	phases AS;
	nominal_voltage 120;
	latitude 52N23'59.874";
	longitude 120W37'58.511";
	power_1 10.2+4.9j;
	voltage_1 120;
	voltage_2 120;
	voltage_N 0;
}

object transformer:227  {
	phases "BS";
	from 100558663B;
	to 100558663B_UB_M;
	configuration transformer_configuration:65;
}

object triplex_meter:228 {
	name 100558663B_UB_M;
	phases "BS";
	nominal_voltage 120;
	voltage_1 -60.000-103.923j;
	voltage_2 -60.000-103.923j;
	voltage_N 0;
}

object triplex_node:229 {
	name 100558663B_UB_TX;
	parent 100558663B_UB_M;
	phases BS;
	nominal_voltage 120;
	latitude 52N28'48.107";
	longitude 120W43'24.829";
	power_1 0+0j;
	voltage_1 -60.000-103.923j;
	voltage_2 -60.000-103.923j;
	voltage_N 0;
}

object transformer:230  {
	phases "BS";
	from 100573115B;
	to 100573115B_UB_M;
	configuration transformer_configuration:63;
}

object triplex_meter:231 {
	name 100573115B_UB_M;
	phases "BS";
	nominal_voltage 120;
	voltage_1 -60.000-103.923j;
	voltage_2 -60.000-103.923j;
	voltage_N 0;
}

object triplex_node:232 {
	name 100573115B_UB_TX;
	parent 100573115B_UB_M;
	phases BS;
	nominal_voltage 120;
	latitude 52N24'29.537";
	longitude 120W36'52.439";
	power_1 2+1.1j;
	voltage_1 -60.000-103.923j;
	voltage_2 -60.000-103.923j;
	voltage_N 0;
}

object transformer:233  {
	phases "AS";
	from 100573172A;
	to 100573172A_UA_M;
	configuration transformer_configuration:53;
}

object triplex_meter:234 {
	name 100573172A_UA_M;
	phases "AS";
	nominal_voltage 120;
	voltage_1 120;
	voltage_2 120;
	voltage_N 0;
}

object triplex_node:235 {
	name 100573172A_UA_TX;
	parent 100573172A_UA_M;
	phases AS;
	nominal_voltage 120;
	latitude 52N26'32.927";
	longitude 120W41'11.758";
	power_1 5.4+3.1j;
	voltage_1 120;
	voltage_2 120;
	voltage_N 0;
}

object transformer:236  {
	phases "BS";
	from 100575419ABC;
	to 100575419ABC_UB_M;
	configuration transformer_configuration:66;
}

object triplex_meter:237 {
	name 100575419ABC_UB_M;
	phases "BS";
	nominal_voltage 120;
	voltage_1 -60.000-103.923j;
	voltage_2 -60.000-103.923j;
	voltage_N 0;
}

object triplex_node:238 {
	name 100575419ABC_UB_TX;
	parent 100575419ABC_UB_M;
	phases BS;
	nominal_voltage 120;
	latitude 52N25'10.353";
	longitude 120W36'15.476";
	power_1 7+3.4j;
	voltage_1 -60.000-103.923j;
	voltage_2 -60.000-103.923j;
	voltage_N 0;
}

object transformer:239  {
	phases "BS";
	from 100579906B;
	to 100579906B_UB_M;
	configuration transformer_configuration:65;
}

object triplex_meter:240 {
	name 100579906B_UB_M;
	phases "BS";
	nominal_voltage 120;
	voltage_1 -60.000-103.923j;
	voltage_2 -60.000-103.923j;
	voltage_N 0;
}

object triplex_node:241 {
	name 100579906B_UB_TX;
	parent 100579906B_UB_M;
	phases BS;
	nominal_voltage 120;
	latitude 52N24'38.190";
	longitude 120W38'47.089";
	power_1 0+0j;
	voltage_1 -60.000-103.923j;
	voltage_2 -60.000-103.923j;
	voltage_N 0;
}

object transformer:242  {
	phases "BS";
	from 100579971B;
	to 100579971B_UB_M;
	configuration transformer_configuration:65;
}

object triplex_meter:243 {
	name 100579971B_UB_M;
	phases "BS";
	nominal_voltage 120;
	voltage_1 -60.000-103.923j;
	voltage_2 -60.000-103.923j;
	voltage_N 0;
}

object triplex_node:244 {
	name 100579971B_UB_TX;
	parent 100579971B_UB_M;
	phases BS;
	nominal_voltage 120;
	latitude 52N24'32.587";
	longitude 120W38'45.407";
	power_1 17.5+9.9j;
	voltage_1 -60.000-103.923j;
	voltage_2 -60.000-103.923j;
	voltage_N 0;
}

object transformer:245  {
	phases "BS";
	from 100580103B;
	to 100580103B_UB_M;
	configuration transformer_configuration:65;
}

object triplex_meter:246 {
	name 100580103B_UB_M;
	phases "BS";
	nominal_voltage 120;
	voltage_1 -60.000-103.923j;
	voltage_2 -60.000-103.923j;
	voltage_N 0;
}

object triplex_node:247 {
	name 100580103B_UB_TX;
	parent 100580103B_UB_M;
	phases BS;
	nominal_voltage 120;
	latitude 52N24'8.803";
	longitude 120W38'45.058";
	power_1 12.9+7.3j;
	voltage_1 -60.000-103.923j;
	voltage_2 -60.000-103.923j;
	voltage_N 0;
}

object transformer:248  {
	phases "BS";
	from 100580170B;
	to 100580170B_UB_M;
	configuration transformer_configuration:65;
}

object triplex_meter:249 {
	name 100580170B_UB_M;
	phases "BS";
	nominal_voltage 120;
	voltage_1 -60.000-103.923j;
	voltage_2 -60.000-103.923j;
	voltage_N 0;
}

object triplex_node:250 {
	name 100580170B_UB_TX;
	parent 100580170B_UB_M;
	phases BS;
	nominal_voltage 120;
	latitude 52N24'11.870";
	longitude 120W38'40.538";
	power_1 22.8+12.9j;
	voltage_1 -60.000-103.923j;
	voltage_2 -60.000-103.923j;
	voltage_N 0;
}

object transformer:251  {
	phases "BS";
	from 100580304B;
	to 100580304B_UB_M;
	configuration transformer_configuration:67;
}

object triplex_meter:252 {
	name 100580304B_UB_M;
	phases "BS";
	nominal_voltage 120;
	voltage_1 -60.000-103.923j;
	voltage_2 -60.000-103.923j;
	voltage_N 0;
}

object triplex_node:253 {
	name 100580304B_UB_TX;
	parent 100580304B_UB_M;
	phases BS;
	nominal_voltage 120;
	latitude 52N24'14.051";
	longitude 120W38'33.849";
	power_1 13.6+7.7j;
	voltage_1 -60.000-103.923j;
	voltage_2 -60.000-103.923j;
	voltage_N 0;
}

object transformer:254  {
	phases "BS";
	from 100580369B;
	to 100580369B_UB_M;
	configuration transformer_configuration:65;
}

object triplex_meter:255 {
	name 100580369B_UB_M;
	phases "BS";
	nominal_voltage 120;
	voltage_1 -60.000-103.923j;
	voltage_2 -60.000-103.923j;
	voltage_N 0;
}

object triplex_node:256 {
	name 100580369B_UB_TX;
	parent 100580369B_UB_M;
	phases BS;
	nominal_voltage 120;
	latitude 52N24'17.006";
	longitude 120W38'33.175";
	power_1 7+4j;
	voltage_1 -60.000-103.923j;
	voltage_2 -60.000-103.923j;
	voltage_N 0;
}

object transformer:257  {
	phases "BS";
	from 100580434B;
	to 100580434B_UB_M;
	configuration transformer_configuration:65;
}

object triplex_meter:258 {
	name 100580434B_UB_M;
	phases "BS";
	nominal_voltage 120;
	voltage_1 -60.000-103.923j;
	voltage_2 -60.000-103.923j;
	voltage_N 0;
}

object triplex_node:259 {
	name 100580434B_UB_TX;
	parent 100580434B_UB_M;
	phases BS;
	nominal_voltage 120;
	latitude 52N24'16.804";
	longitude 120W38'35.266";
	power_1 13.8+7.8j;
	voltage_1 -60.000-103.923j;
	voltage_2 -60.000-103.923j;
	voltage_N 0;
}

object transformer:260  {
	phases "BS";
	from 100580499B;
	to 100580499B_UB_M;
	configuration transformer_configuration:65;
}

object triplex_meter:261 {
	name 100580499B_UB_M;
	phases "BS";
	nominal_voltage 120;
	voltage_1 -60.000-103.923j;
	voltage_2 -60.000-103.923j;
	voltage_N 0;
}

object triplex_node:262 {
	name 100580499B_UB_TX;
	parent 100580499B_UB_M;
	phases BS;
	nominal_voltage 120;
	latitude 52N24'18.462";
	longitude 120W38'44.982";
	power_1 5.3+3j;
	voltage_1 -60.000-103.923j;
	voltage_2 -60.000-103.923j;
	voltage_N 0;
}

object transformer:263  {
	phases "BS";
	from 100580566B;
	to 100580566B_UB_M;
	configuration transformer_configuration:65;
}

object triplex_meter:264 {
	name 100580566B_UB_M;
	phases "BS";
	nominal_voltage 120;
	voltage_1 -60.000-103.923j;
	voltage_2 -60.000-103.923j;
	voltage_N 0;
}

object triplex_node:265 {
	name 100580566B_UB_TX;
	parent 100580566B_UB_M;
	phases BS;
	nominal_voltage 120;
	latitude 52N24'19.246";
	longitude 120W38'44.976";
	power_1 6+2.9j;
	voltage_1 -60.000-103.923j;
	voltage_2 -60.000-103.923j;
	voltage_N 0;
}

object transformer:266  {
	phases "BS";
	from 100580631B;
	to 100580631B_UB_M;
	configuration transformer_configuration:65;
}

object triplex_meter:267 {
	name 100580631B_UB_M;
	phases "BS";
	nominal_voltage 120;
	voltage_1 -60.000-103.923j;
	voltage_2 -60.000-103.923j;
	voltage_N 0;
}

object triplex_node:268 {
	name 100580631B_UB_TX;
	parent 100580631B_UB_M;
	phases BS;
	nominal_voltage 120;
	latitude 52N24'26.097";
	longitude 120W38'43.854";
	power_1 21.4+11.6j;
	voltage_1 -60.000-103.923j;
	voltage_2 -60.000-103.923j;
	voltage_N 0;
}

object transformer:269  {
	phases "BS";
	from 100580698B;
	to 100580698B_UB_M;
	configuration transformer_configuration:65;
}

object triplex_meter:270 {
	name 100580698B_UB_M;
	phases "BS";
	nominal_voltage 120;
	voltage_1 -60.000-103.923j;
	voltage_2 -60.000-103.923j;
	voltage_N 0;
}

object triplex_node:271 {
	name 100580698B_UB_TX;
	parent 100580698B_UB_M;
	phases BS;
	nominal_voltage 120;
	latitude 52N24'28.111";
	longitude 120W38'43.431";
	power_1 11.2+6.4j;
	voltage_1 -60.000-103.923j;
	voltage_2 -60.000-103.923j;
	voltage_N 0;
}

object transformer:272  {
	phases "BS";
	from 100580765B;
	to 100580765B_UB_M;
	configuration transformer_configuration:65;
}

object triplex_meter:273 {
	name 100580765B_UB_M;
	phases "BS";
	nominal_voltage 120;
	voltage_1 -60.000-103.923j;
	voltage_2 -60.000-103.923j;
	voltage_N 0;
}

object triplex_node:274 {
	name 100580765B_UB_TX;
	parent 100580765B_UB_M;
	phases BS;
	nominal_voltage 120;