//*********************************************
// $Id: R5-25.00-1.glm 1132 2008-11-18 22:36:10Z dchassin $ 
//*********************************************

clock { 
	 timezone EST+5EDT;
	 timestamp '2000-01-01 0:00:00';
}

//*********************************************
// modules
module powerflow;


object triplex_line_conductor: {
	name 1/0 AA triplex;
	resistance 0.97;
	geometric_mean_radius 0.0111;
}

object triplex_line_configuration:1 {
	conductor_1 1/0 AA triplex;
	conductor_2 1/0 AA triplex;
	conductor_N 1/0 AA triplex;
	insulation_thickness 0.08;
	diameter 0.368;
}

object transformer:106  {
	phases "AS";
	from 241712896;
	to 241712896_RA_M;
	configuration transformer_configuration:51;
}

object triplex_meter:107 {
	name 241712896_RA_M;
	phases "AS";
	nominal_voltage 120;
	voltage_1 120;
	voltage_2 120;
	voltage_N 0;
}

object triplex_node:108 {
	name 241712896_RA_TX;
	parent 241712896_RA_M;
	phases AS;
	nominal_voltage 120;
	latitude 49N8'7.795";
	longitude 123W28'0.491";
	power_1 0+0j;
	voltage_1 120;
	voltage_2 120;
	voltage_N 0;
}

object transformer:109  {
	phases "CS";
	from 241712896;
	to 241712896_RC_M;
	configuration transformer_configuration:83;
}

object triplex_meter:110 {
	name 241712896_RC_M;
	phases "CS";
	nominal_voltage 120;
	voltage_1 -60.000+103.923j;
	voltage_2 -60.000+103.923j;
	voltage_N 0;
}

object triplex_node:111 {
	name 241712896_RC_TX;
	parent 241712896_RC_M;
	phases CS;
	nominal_voltage 120;
	latitude 49N8'7.795";
	longitude 123W28'0.491";
	power_1 0+0j;
	voltage_1 -60.000+103.923j;
	voltage_2 -60.000+103.923j;
	voltage_N 0;
}

object transformer:112  {
	phases "BS";
	from 241719333;
	to 241719333_RB_M;
	configuration transformer_configuration:64;
}

object triplex_meter:113 {
	name 241719333_RB_M;
	phases "BS";
	nominal_voltage 120;
	voltage_1 -60.000-103.923j;
	voltage_2 -60.000-103.923j;
	voltage_N 0;
}

object triplex_node:114 {
	name 241719333_RB_TX;
	parent 241719333_RB_M;
	phases BS;
	nominal_voltage 120;
	latitude 49N8'6.408";
	longitude 123W28'9.734";
	power_1 0+0j;
	voltage_1 -60.000-103.923j;
	voltage_2 -60.000-103.923j;
	voltage_N 0;
}

object transformer:115  {
	phases "BS";
	from 242284122;
	to 242284122_RB_M;
	configuration transformer_configuration:65;
}

object triplex_meter:116 {
	name 242284122_RB_M;
	phases "BS";
	nominal_voltage 120;
	voltage_1 -60.000-103.923j;
	voltage_2 -60.000-103.923j;
	voltage_N 0;
}

object triplex_node:117 {
	name 242284122_RB_TX;
	parent 242284122_RB_M;
	phases BS;
	nominal_voltage 120;
	latitude 49N7'56.671";
	longitude 123W29'16.238";
	power_1 0+0j;
	voltage_1 -60.000-103.923j;
	voltage_2 -60.000-103.923j;
	voltage_N 0;
}

object transformer:118  {
	phases "AS";
	from 242286588;
	to 242286588_RA_M;
	configuration transformer_configuration:52;
}

object triplex_meter:119 {
	name 242286588_RA_M;
	phases "AS";
	nominal_voltage 120;
	voltage_1 120;
	voltage_2 120;
	voltage_N 0;
}

object triplex_node:120 {
	name 242286588_RA_TX;
	parent 242286588_RA_M;
	phases AS;
	nominal_voltage 120;
	latitude 49N7'54.317";
	longitude 123W29'13.849";
	power_1 0+0j;
	voltage_1 120;
	voltage_2 120;
	voltage_N 0;
}

object transformer:121  {
	phases "BS";
	from 45269573;
	to 45269573_RB_M;
	configuration transformer_configuration:66;
}

object triplex_meter:122 {
	name 45269573_RB_M;
	phases "BS";
	nominal_voltage 120;
	voltage_1 -60.000-103.923j;
	voltage_2 -60.000-103.923j;
	voltage_N 0;
}

object triplex_node:123 {
	name 45269573_RB_TX;
	parent 45269573_RB_M;
	phases BS;
	nominal_voltage 120;
	latitude 49N7'51.825";
	longitude 123W28'17.750";
	power_1 0+0j;
	voltage_1 -60.000-103.923j;
	voltage_2 -60.000-103.923j;
	voltage_N 0;
}

object transformer:124  {
	phases "BS";
	from 242720352;
	to 242720352_RB_M;
	configuration transformer_configuration:65;
}

object triplex_meter:125 {
	name 242720352_RB_M;
	phases "BS";
	nominal_voltage 120;
	voltage_1 -60.000-103.923j;
	voltage_2 -60.000-103.923j;
	voltage_N 0;
}

object triplex_node:126 {
	name 242720352_RB_TX;
	parent 242720352_RB_M;
	phases BS;
	nominal_voltage 120;
	latitude 49N7'43.327";
	longitude 123W28'8.515";
	power_1 0+0j;
	voltage_1 -60.000-103.923j;
	voltage_2 -60.000-103.923j;
	voltage_N 0;
}

object transformer:127  {
	phases "BS";
	from 314331608;
	to 314331608_RB_M;
	configuration transformer_configuration:65;
}

object triplex_meter:128 {
	name 314331608_RB_M;
	phases "BS";
	nominal_voltage 120;
	voltage_1 -60.000-103.923j;
	voltage_2 -60.000-103.923j;
	voltage_N 0;
}

object triplex_node:129 {
	name 314331608_RB_TX;
	parent 314331608_RB_M;
	phases BS;
	nominal_voltage 120;
	latitude 49N7'57.147";
	longitude 123W27'34.664";
	power_1 0+0j;
	voltage_1 -60.000-103.923j;
	voltage_2 -60.000-103.923j;
	voltage_N 0;
}

object transformer:130  {
	phases "A|B|C|N";
	from 40225408;
	to 40225408_C_M;
	configuration transformer_configuration:96;
}

object meter:131 {
	name 40225408_C_M;
	phases "ABCN";
	nominal_voltage 13221.321;
	voltage_A 13221.321+0.0j;
	voltage_B -6610.660-11450.000j;
	voltage_C -6610.660+11450.000j;
}
object transformer:132  {
	phases "A|B|C|N";
	from 40225741;
	to 40225741_C_M;
	configuration transformer_configuration:96;
}

object meter:133 {
	name 40225741_C_M;
	phases "ABCN";
	nominal_voltage 13221.321;
	voltage_A 13221.321+0.0j;
	voltage_B -6610.660-11450.000j;
	voltage_C -6610.660+11450.000j;
}
object transformer:134  {
	phases "A|B|C|N";
	from 40226135;
	to 40226135_C_M;
	configuration transformer_configuration:97;
}

object meter:135 {
	name 40226135_C_M;
	phases "ABCN";
	nominal_voltage 13221.321;
	voltage_A 13221.321+0.0j;
	voltage_B -6610.660-11450.000j;
	voltage_C -6610.660+11450.000j;
}
object transformer:136  {
	phases "BS";
	from 44905684;
	to 44905684_RB_M;
	configuration transformer_configuration:69;
}

object triplex_meter:137 {
	name 44905684_RB_M;
	phases "BS";
	nominal_voltage 120;
	voltage_1 -60.000-103.923j;
	voltage_2 -60.000-103.923j;
	voltage_N 0;
}

object triplex_node:138 {
	name 44905684_RB_TX;
	parent 44905684_RB_M;
	phases BS;
	nominal_voltage 120;
	latitude 49N7'56.940";
	longitude 123W27'47.095";
	power_1 0+0j;
	voltage_1 -60.000-103.923j;
	voltage_2 -60.000-103.923j;
	voltage_N 0;
}

object transformer:139  {
	phases "BS";
	from 44948256;
	to 44948256_RB_M;
	configuration transformer_configuration:70;
}

object triplex_meter:140 {
	name 44948256_RB_M;
	phases "BS";
	nominal_voltage 120;
	voltage_1 -60.000-103.923j;
	voltage_2 -60.000-103.923j;
	voltage_N 0;
}

object triplex_node:141 {
	name 44948256_RB_TX;
	parent 44948256_RB_M;
	phases BS;
	nominal_voltage 120;
	latitude 49N7'41.852";
	longitude 123W27'24.659";
	power_1 0+0j;
	voltage_1 -60.000-103.923j;
	voltage_2 -60.000-103.923j;
	voltage_N 0;
}

object transformer:142  {
	phases "AS";
	from 44954363;
	to 44954363_RA_M;
	configuration transformer_configuration:55;
}

object triplex_meter:143 {
	name 44954363_RA_M;
	phases "AS";
	nominal_voltage 120;
	voltage_1 120;
	voltage_2 120;
	voltage_N 0;
}

object triplex_node:144 {
	name 44954363_RA_TX;
	parent 44954363_RA_M;
	phases AS;
	nominal_voltage 120;
	latitude 49N7'47.980";
	longitude 123W26'57.715";
	power_1 0+0j;
	voltage_1 120;
	voltage_2 120;
	voltage_N 0;
}

object transformer:145  {
	phases "AS";
	from 44954441;
	to 44954441_RA_M;
	configuration transformer_configuration:56;
}

object triplex_meter:146 {
	name 44954441_RA_M;
	phases "AS";
	nominal_voltage 120;
	voltage_1 120;
	voltage_2 120;
	voltage_N 0;
}

object triplex_node:147 {
	name 44954441_RA_TX;
	parent 44954441_RA_M;
	phases AS;
	nominal_voltage 120;
	latitude 49N7'49.689";
	longitude 123W26'57.729";
	power_1 0+0j;
	voltage_1 120;
	voltage_2 120;
	voltage_N 0;
}

object transformer:148  {
	phases "AS";
	from 45061934;
	to 45061934_RA_M;
	configuration transformer_configuration:57;
}

object triplex_meter:149 {
	name 45061934_RA_M;
	phases "AS";
	nominal_voltage 120;
	voltage_1 120;
	voltage_2 120;
	voltage_N 0;
}

object triplex_node:150 {
	name 45061934_RA_TX;
	parent 45061934_RA_M;
	phases AS;
	nominal_voltage 120;
	latitude 49N7'54.389";
	longitude 123W29'11.536";
	power_1 0+0j;
	voltage_1 120;
	voltage_2 120;
	voltage_N 0;
}

object transformer:151  {
	phases "AS";
	from 45062994;
	to 45062994_RA_M;
	configuration transformer_configuration:51;
}

object triplex_meter:152 {
	name 45062994_RA_M;
	phases "AS";
	nominal_voltage 120;
	voltage_1 120;
	voltage_2 120;
	voltage_N 0;
}

object triplex_node:153 {
	name 45062994_RA_TX;
	parent 45062994_RA_M;
	phases AS;
	nominal_voltage 120;
	latitude 49N8'3.717";
	longitude 123W29'3.721";
	power_1 0+0j;
	voltage_1 120;
	voltage_2 120;
	voltage_N 0;
}

object transformer:154  {
	phases "BS";
	from 45062994;
	to 45062994_RB_M;
	configuration transformer_configuration:71;
}

object triplex_meter:155 {
	name 45062994_RB_M;
	phases "BS";
	nominal_voltage 120;
	voltage_1 -60.000-103.923j;
	voltage_2 -60.000-103.923j;
	voltage_N 0;
}

object triplex_node:156 {
	name 45062994_RB_TX;
	parent 45062994_RB_M;
	phases BS;
	nominal_voltage 120;
	latitude 49N8'3.717";
	longitude 123W29'3.721";
	power_1 0+0j;
	voltage_1 -60.000-103.923j;
	voltage_2 -60.000-103.923j;
	voltage_N 0;
}

object transformer:157  {
	phases "CS";
	from 45062994;
	to 45062994_RC_M;
	configuration transformer_configuration:83;
}

object triplex_meter:158 {
	name 45062994_RC_M;
	phases "CS";
	nominal_voltage 120;
	voltage_1 -60.000+103.923j;
	voltage_2 -60.000+103.923j;
	voltage_N 0;
}

object triplex_node:159 {
	name 45062994_RC_TX;
	parent 45062994_RC_M;
	phases CS;
	nominal_voltage 120;
	latitude 49N8'3.717";
	longitude 123W29'3.721";
	power_1 0+0j;
	voltage_1 -60.000+103.923j;
	voltage_2 -60.000+103.923j;
	voltage_N 0;
}

object transformer:160  {
	phases "BS";
	from 45065135;
	to 45065135_RB_M;
	configuration transformer_configuration:72;
}

object triplex_meter:161 {
	name 45065135_RB_M;
	phases "BS";
	nominal_voltage 120;
	voltage_1 -60.000-103.923j;
	voltage_2 -60.000-103.923j;
	voltage_N 0;
}

object triplex_node:162 {
	name 45065135_RB_TX;
	parent 45065135_RB_M;
	phases BS;
	nominal_voltage 120;
	latitude 49N7'49.047";
	longitude 123W28'2.572";
	power_1 0+0j;
	voltage_1 -60.000-103.923j;
	voltage_2 -60.000-103.923j;
	voltage_N 0;
}

object transformer:163  {
	phases "BS";
	from 45065262;
	to 45065262_RB_M;
	configuration transformer_configuration:69;
}

object triplex_meter:164 {
	name 45065262_RB_M;
	phases "BS";
	nominal_voltage 120;
	voltage_1 -60.000-103.923j;
	voltage_2 -60.000-103.923j;
	voltage_N 0;
}

object triplex_node:165 {
	name 45065262_RB_TX;
	parent 45065262_RB_M;
	phases BS;
	nominal_voltage 120;
	latitude 49N7'45.071";
	longitude 123W28'8.655";
	power_1 0+0j;
	voltage_1 -60.000-103.923j;
	voltage_2 -60.000-103.923j;
	voltage_N 0;
}

object transformer:166  {
	phases "BS";
	from 242724961;
	to 242724961_RB_M;
	configuration transformer_configuration:65;
}

object triplex_meter:167 {
	name 242724961_RB_M;
	phases "BS";
	nominal_voltage 120;
	voltage_1 -60.000-103.923j;
	voltage_2 -60.000-103.923j;
	voltage_N 0;
}

object triplex_node:168 {
	name 242724961_RB_TX;
	parent 242724961_RB_M;
	phases BS;
	nominal_voltage 120;
	latitude 49N7'47.636";
	longitude 123W28'8.760";
	power_1 0+0j;
	voltage_1 -60.000-103.923j;
	voltage_2 -60.000-103.923j;
	voltage_N 0;
}

object transformer:169  {
	phases "BS";
	from 40391385;
	to 40391385_RB_M;
	configuration transformer_configuration:70;
}

object triplex_meter:170 {
	name 40391385_RB_M;
	phases "BS";
	nominal_voltage 120;
	voltage_1 -60.000-103.923j;
	voltage_2 -60.000-103.923j;
	voltage_N 0;
}

object triplex_node:171 {
	name 40391385_RB_TX;
	parent 40391385_RB_M;
	phases BS;
	nominal_voltage 120;
	latitude 49N7'50.142";
	longitude 123W28'8.907";
	power_1 0+0j;
	voltage_1 -60.000-103.923j;
	voltage_2 -60.000-103.923j;
	voltage_N 0;
}

object transformer:172  {
	phases "BS";
	from 45065412;
	to 45065412_RB_M;
	configuration transformer_configuration:73;
}

object triplex_meter:173 {
	name 45065412_RB_M;
	phases "BS";
	nominal_voltage 120;
	voltage_1 -60.000-103.923j;
	voltage_2 -60.000-103.923j;
	voltage_N 0;
}

object triplex_node:174 {
	name 45065412_RB_TX;
	parent 45065412_RB_M;
	phases BS;
	nominal_voltage 120;
	latitude 49N7'51.359";
	longitude 123W28'9.010";
	power_1 0+0j;
	voltage_1 -60.000-103.923j;
	voltage_2 -60.000-103.923j;
	voltage_N 0;
}

object transformer:175  {
	phases "BS";
	from 45065495;
	to 45065495_RB_M;
	configuration transformer_configuration:74;
}

object triplex_meter:176 {
	name 45065495_RB_M;
	phases "BS";
	nominal_voltage 120;
	voltage_1 -60.000-103.923j;
	voltage_2 -60.000-103.923j;
	voltage_N 0;
}

object triplex_node:177 {
	name 45065495_RB_TX;
	parent 45065495_RB_M;
	phases BS;
	nominal_voltage 120;
	latitude 49N7'55.093";
	longitude 123W28'9.158";
	power_1 0+0j;
	voltage_1 -60.000-103.923j;
	voltage_2 -60.000-103.923j;
	voltage_N 0;
}

object transformer:178  {
	phases "BS";
	from 45069834;
	to 45069834_RB_M;
	configuration transformer_configuration:65;
}

object triplex_meter:179 {
	name 45069834_RB_M;
	phases "BS";
	nominal_voltage 120;
	voltage_1 -60.000-103.923j;
	voltage_2 -60.000-103.923j;
	voltage_N 0;
}

object triplex_node:180 {
	name 45069834_RB_TX;
	parent 45069834_RB_M;
	phases BS;
	nominal_voltage 120;
	latitude 49N7'56.008";
	longitude 123W28'11.632";
	power_1 0+0j;
	voltage_1 -60.000-103.923j;
	voltage_2 -60.000-103.923j;
	voltage_N 0;
}

object transformer:181  {
	phases "BS";
	from 45069919;
	to 45069919_RB_M;
	configuration transformer_configuration:73;
}

object triplex_meter:182 {
	name 45069919_RB_M;
	phases "BS";
	nominal_voltage 120;
	voltage_1 -60.000-103.923j;
	voltage_2 -60.000-103.923j;
	voltage_N 0;
}

object triplex_node:183 {
	name 45069919_RB_TX;
	parent 45069919_RB_M;
	phases BS;
	nominal_voltage 120;
	latitude 49N7'57.699";
	longitude 123W28'9.291";
	power_1 0+0j;
	voltage_1 -60.000-103.923j;
	voltage_2 -60.000-103.923j;
	voltage_N 0;
}

object transformer:184  {
	phases "BS";
	from 45069961;
	to 45069961_RB_M;
	configuration transformer_configuration:69;
}

object triplex_meter:185 {
	name 45069961_RB_M;
	phases "BS";
	nominal_voltage 120;
	voltage_1 -60.000-103.923j;
	voltage_2 -60.000-103.923j;
	voltage_N 0;
}

object triplex_node:186 {
	name 45069961_RB_TX;
	parent 45069961_RB_M;
	phases BS;
	nominal_voltage 120;
	latitude 49N8'0.796";
	longitude 123W28'9.439";
	power_1 0+0j;
	voltage_1 -60.000-103.923j;
	voltage_2 -60.000-103.923j;
	voltage_N 0;
}

object transformer:187  {
	phases "BS";
	from 45070005;
	to 45070005_RB_M;
	configuration transformer_configuration:73;
}

object triplex_meter:188 {
	name 45070005_RB_M;
	phases "BS";
	nominal_voltage 120;
	voltage_1 -60.000-103.923j;
	voltage_2 -60.000-103.923j;
	voltage_N 0;
}

object triplex_node:189 {
	name 45070005_RB_TX;
	parent 45070005_RB_M;
	phases BS;
	nominal_voltage 120;
	latitude 49N8'2.643";
	longitude 123W28'9.512";
	power_1 0+0j;
	voltage_1 -60.000-103.923j;
	voltage_2 -60.000-103.923j;
	voltage_N 0;
}

object transformer:190  {
	phases "BS";
	from 45070086;
	to 45070086_RB_M;
	configuration transformer_configuration:73;
}

object triplex_meter:191 {
	name 45070086_RB_M;
	phases "BS";
	nominal_voltage 120;
	voltage_1 -60.000-103.923j;
	voltage_2 -60.000-103.923j;
	voltage_N 0;
}

object triplex_node:192 {
	name 45070086_RB_TX;
	parent 45070086_RB_M;
	phases BS;
	nominal_voltage 120;
	latitude 49N8'5.146";
	longitude 123W28'9.661";
	power_1 0+0j;
	voltage_1 -60.000-103.923j;
	voltage_2 -60.000-103.923j;
	voltage_N 0;
}

object transformer:193  {
	phases "BS";
	from 45070175;
	to 45070175_RB_M;
	configuration transformer_configuration:75;
}

object triplex_meter:194 {
	name 45070175_RB_M;
	phases "BS";
	nominal_voltage 120;
	voltage_1 -60.000-103.923j;
	voltage_2 -60.000-103.923j;
	voltage_N 0;
}

object triplex_node:195 {
	name 45070175_RB_TX;
	parent 45070175_RB_M;
	phases BS;
	nominal_voltage 120;
	latitude 49N8'7.866";
	longitude 123W28'12.325";
	power_1 0+0j;
	voltage_1 -60.000-103.923j;
	voltage_2 -60.000-103.923j;
	voltage_N 0;
}

object transformer:196  {
	phases "BS";
	from 45070215;
	to 45070215_RB_M;
	configuration transformer_configuration:70;
}

object triplex_meter:197 {
	name 45070215_RB_M;
	phases "BS";
	nominal_voltage 120;
	voltage_1 -60.000-103.923j;
	voltage_2 -60.000-103.923j;
	voltage_N 0;
}

object triplex_node:198 {
	name 45070215_RB_TX;
	parent 45070215_RB_M;
	phases BS;
	nominal_voltage 120;
	latitude 49N8'7.814";
	longitude 123W28'14.453";
	power_1 0+0j;
	voltage_1 -60.000-103.923j;
	voltage_2 -60.000-103.923j;
	voltage_N 0;
}

object transformer:199  {
	phases "BS";
	from 45070254;
	to 45070254_RB_M;
	configuration transformer_configuration:65;
}

object triplex_meter:200 {
	name 45070254_RB_M;
	phases "BS";
	nominal_voltage 120;
	voltage_1 -60.000-103.923j;
	voltage_2 -60.000-103.923j;
	voltage_N 0;
}

object triplex_node:201 {
	name 45070254_RB_TX;
	parent 45070254_RB_M;
	phases BS;
	nominal_voltage 120;
	latitude 49N8'7.938";
	longitude 123W28'6.812";
	power_1 0+0j;
	voltage_1 -60.000-103.923j;
	voltage_2 -60.000-103.923j;
	voltage_N 0;
}

object transformer:202  {
	phases "BS";
	from 45070298;
	to 45070298_RB_M;
	configuration transformer_configuration:70;
}

object triplex_meter:203 {
	name 45070298_RB_M;
	phases "BS";
	nominal_voltage 120;
	voltage_1 -60.000-103.923j;
	voltage_2 -60.000-103.923j;
	voltage_N 0;
}

object triplex_node:204 {
	name 45070298_RB_TX;
	parent 45070298_RB_M;
	phases BS;
	nominal_voltage 120;
	latitude 49N8'7.980";
	longitude 123W28'4.685";
	power_1 0+0j;
	voltage_1 -60.000-103.923j;
	voltage_2 -60.000-103.923j;
	voltage_N 0;
}

object transformer:205  {
	phases "BS";
	from 45070342;
	to 45070342_RB_M;
	configuration transformer_configuration:70;
}

object triplex_meter:206 {
	name 45070342_RB_M;
	phases "BS";
	nominal_voltage 120;
	voltage_1 -60.000-103.923j;
	voltage_2 -60.000-103.923j;
	voltage_N 0;
}

object triplex_node:207 {
	name 45070342_RB_TX;
	parent 45070342_RB_M;
	phases BS;
	nominal_voltage 120;
	latitude 49N8'8.031";
	longitude 123W28'2.034";
	power_1 0+0j;
	voltage_1 -60.000-103.923j;
	voltage_2 -60.000-103.923j;
	voltage_N 0;
}

object transformer:208  {
	phases "AS";
	from 44948615;
	to 44948615_RA_M;
	configuration transformer_configuration:58;
}

object triplex_meter:209 {
	name 44948615_RA_M;
	phases "AS";
	nominal_voltage 120;
	voltage_1 120;
	voltage_2 120;
	voltage_N 0;
}

object triplex_node:210 {
	name 44948615_RA_TX;
	parent 44948615_RA_M;
	phases AS;
	nominal_voltage 120;
	latitude 49N7'43.484";
	longitude 123W27'48.368";
	power_1 0+0j;
	voltage_1 120;
	voltage_2 120;
	voltage_N 0;
}

object transformer:211  {
	phases "BS";
	from 44948615;
	to 44948615_RB_M;
	configuration transformer_configuration:76;
}

object triplex_meter:212 {
	name 44948615_RB_M;
	phases "BS";
	nominal_voltage 120;
	voltage_1 -60.000-103.923j;
	voltage_2 -60.000-103.923j;
	voltage_N 0;
}

object triplex_node:213 {
	name 44948615_RB_TX;
	parent 44948615_RB_M;
	phases BS;
	nominal_voltage 120;
	latitude 49N7'43.484";
	longitude 123W27'48.368";
	power_1 0+0j;
	voltage_1 -60.000-103.923j;
	voltage_2 -60.000-103.923j;
	voltage_N 0;
}

object transformer:214  {
	phases "CS";
	from 44948615;
	to 44948615_RC_M;
	configuration transformer_configuration:90;
}

object triplex_meter:215 {
	name 44948615_RC_M;
	phases "CS";
	nominal_voltage 120;
	voltage_1 -60.000+103.923j;
	voltage_2 -60.000+103.923j;
	voltage_N 0;
}

object triplex_node:216 {
	name 44948615_RC_TX;
	parent 44948615_RC_M;
	phases CS;
	nominal_voltage 120;
	latitude 49N7'43.484";
	longitude 123W27'48.368";
	power_1 0+0j;
	voltage_1 -60.000+103.923j;
	voltage_2 -60.000+103.923j;
	voltage_N 0;
}

object transformer:217  {
	phases "BS";
	from 39997227;
	to 39997227_RB_M;
	configuration transformer_configuration:66;
}

object triplex_meter:218 {
	name 39997227_RB_M;
	phases "BS";
	nominal_voltage 120;
	voltage_1 -60.000-103.923j;
	voltage_2 -60.000-103.923j;
	voltage_N 0;
}

object triplex_node:219 {
	name 39997227_RB_TX;
	parent 39997227_RB_M;
	phases BS;
	nominal_voltage 120;
	latitude 49N7'43.946";
	longitude 123W27'25.756";
	power_1 0+0j;
	voltage_1 -60.000-103.923j;
	voltage_2 -60.000-103.923j;
	voltage_N 0;
}

object transformer:220  {
	phases "BS";
	from 313942821;
	to 313942821_RB_M;
	configuration transformer_configuration:66;
}

object triplex_meter:221 {
	name 313942821_RB_M;
	phases "BS";
	nominal_voltage 120;
	voltage_1 -60.000-103.923j;
	voltage_2 -60.000-103.923j;
	voltage_N 0;
}

object triplex_node:222 {
	name 313942821_RB_TX;
	parent 313942821_RB_M;
	phases BS;
	nominal_voltage 120;
	latitude 49N7'44.015";
	longitude 123W27'21.168";
	power_1 0+0j;
	voltage_1 -60.000-103.923j;
	voltage_2 -60.000-103.923j;
	voltage_N 0;
}

object transformer:223  {
	phases "AS";
	from 316163010;
	to 316163010_RA_M;
	configuration transformer_configuration:52;
}

object triplex_meter:224 {
	name 316163010_RA_M;
	phases "AS";
	nominal_voltage 120;
	voltage_1 120;
	voltage_2 120;
	voltage_N 0;
}

object triplex_node:225 {
	name 316163010_RA_TX;
	parent 316163010_RA_M;
	phases AS;
	nominal_voltage 120;
	latitude 49N8'1.138";
	longitude 123W27'39.533";
	power_1 0+0j;
	voltage_1 120;
	voltage_2 120;
	voltage_N 0;
}

object transformer:226  {
	phases "CS";
	from 316163010;
	to 316163010_RC_M;
	configuration transformer_configuration:84;
}

object triplex_meter:227 {
	name 316163010_RC_M;
	phases "CS";
	nominal_voltage 120;
	voltage_1 -60.000+103.923j;
	voltage_2 -60.000+103.923j;
	voltage_N 0;
}

object triplex_node:228 {
	name 316163010_RC_TX;
	parent 316163010_RC_M;
	phases CS;
	nominal_voltage 120;
	latitude 49N8'1.138";
	longitude 123W27'39.533";
	power_1 0+0j;
	voltage_1 -60.000+103.923j;
	voltage_2 -60.000+103.923j;
	voltage_N 0;
}

object transformer:229  {
	phases "BS";
	from 314599611;
	to 314599611_RB_M;
	configuration transformer_configuration:66;
}

object triplex_meter:230 {
	name 314599611_RB_M;
	phases "BS";
	nominal_voltage 120;
	voltage_1 -60.000-103.923j;
	voltage_2 -60.000-103.923j;
	voltage_N 0;
}

object triplex_node:231 {
	name 314599611_RB_TX;
	parent 314599611_RB_M;
	phases BS;
	nominal_voltage 120;
	latitude 49N7'43.778";
	longitude 123W27'32.560";
	power_1 0+0j;
	voltage_1 -60.000-103.923j;
	voltage_2 -60.000-103.923j;
	voltage_N 0;
}

object transformer:232  {
	phases "BS";
	from 38236426;
	to 38236426_RB_M;
	configuration transformer_configuration:77;
}

object triplex_meter:233 {
	name 38236426_RB_M;
	phases "BS";
	nominal_voltage 120;
	voltage_1 -60.000-103.923j;
	voltage_2 -60.000-103.923j;
	voltage_N 0;
}

object triplex_node:234 {
	name 38236426_RB_TX;
	parent 38236426_RB_M;
	phases BS;
	nominal_voltage 120;
	latitude 49N7'47.352";
	longitude 123W26'59.548";
	power_1 0+0j;
	voltage_1 -60.000-103.923j;
	voltage_2 -60.000-103.923j;
	voltage_N 0;
}

object transformer:235  {
	phases "AS";
	from 538945474;
	to 538945474_RA_M;
	configuration transformer_configuration:57;
}

object triplex_meter:236 {
	name 538945474_RA_M;
	phases "AS";
	nominal_voltage 120;
	voltage_1 120;
	voltage_2 120;
	voltage_N 0;
}

object triplex_node:237 {
	name 538945474_RA_TX;
	parent 538945474_RA_M;
	phases AS;
	nominal_voltage 120;
	latitude 49N7'47.805";
	longitude 123W27'39.105";
	power_1 0+0j;
	voltage_1 120;
	voltage_2 120;
	voltage_N 0;
}

object transformer:238  {
	phases "CS";
	from 538945474;
	to 538945474_RC_M;
	configuration transformer_configuration:89;
}

object triplex_meter:239 {
	name 538945474_RC_M;
	phases "CS";
	nominal_voltage 120;
	voltage_1 -60.000+103.923j;
	voltage_2 -60.000+103.923j;
	voltage_N 0;
}

object triplex_node:240 {
	name 538945474_RC_TX;
	parent 538945474_RC_M;
	phases CS;
	nominal_voltage 120;
	latitude 49N7'47.805";
	longitude 123W27'39.105";
	power_1 0+0j;
	voltage_1 -60.000+103.923j;
	voltage_2 -60.000+103.923j;
	voltage_N 0;
}

object transformer:241  {
	phases "AS";
	from 557352536;
	to 557352536_RA_M;
	configuration transformer_configuration:59;
}

object triplex_meter:242 {
	name 557352536_RA_M;
	phases "AS";
	nominal_voltage 120;
	voltage_1 120;
	voltage_2 120;
	voltage_N 0;
}

object triplex_node:243 {
	name 557352536_RA_TX;
	parent 557352536_RA_M;
	phases AS;
	nominal_voltage 120;
	latitude 49N7'37.599";
	longitude 123W28'16.725";
	power_1 0+0j;
	voltage_1 120;
	voltage_2 120;
	voltage_N 0;
}

object transformer:244  {
	phases "CS";
	from 557352536;
	to 557352536_RC_M;
	configuration transformer_configuration:91;
}

object triplex_meter:245 {
	name 557352536_RC_M;
	phases "CS";
	nominal_voltage 120;
	voltage_1 -60.000+103.923j;
	voltage_2 -60.000+103.923j;
	voltage_N 0;
}

object triplex_node:246 {
	name 557352536_RC_TX;
	parent 557352536_RC_M;
	phases CS;
	nominal_voltage 120;
	latitude 49N7'37.599";
	longitude 123W28'16.725";
	power_1 0+0j;
	voltage_1 -60.000+103.923j;
	voltage_2 -60.000+103.923j;
	voltage_N 0;
}

object transformer:247  {
	phases "AS";
	from 45306161;
	to 45306161_RA_M;
	configuration transformer_configuration:59;
}

object triplex_meter:248 {
	name 45306161_RA_M;
	phases "AS";
	nominal_voltage 120;
	voltage_1 120;
	voltage_2 120;
	voltage_N 0;
}

object triplex_node:249 {
	name 45306161_RA_TX;
	parent 45306161_RA_M;
	phases AS;
	nominal_voltage 120;
	latitude 49N8'18.845";
	longitude 123W28'19.324";
	power_1 0+0j;
	voltage_1 120;
	voltage_2 120;
	voltage_N 0;
}

object transformer:250  {
	phases "BS";
	from 45306161;
	to 45306161_RB_M;
	configuration transformer_configuration:77;
}

object triplex_meter:251 {
	name 45306161_RB_M;
	phases "BS";
	nominal_voltage 120;
	voltage_1 -60.000-103.923j;
	voltage_2 -60.000-103.923j;
	voltage_N 0;
}

object triplex_node:252 {
	name 45306161_RB_TX;
	parent 45306161_RB_M;
	phases BS;
	nominal_voltage 120;
	latitude 49N8'18.845";
	longitude 123W28'19.324";
	power_1 0+0j;
	voltage_1 -60.000-103.923j;
	voltage_2 -60.000-103.923j;
	voltage_N 0;
}

object transformer:253  {
	phases "CS";
	from 45306161;
	to 45306161_RC_M;
	configuration transformer_configuration:91;
}

object triplex_meter:254 {
	name 45306161_RC_M;
	phases "CS";
	nominal_voltage 120;
	voltage_1 -60.000+103.923j;
	voltage_2 -60.000+103.923j;
	voltage_N 0;
}

object triplex_node:255 {
	name 45306161_RC_TX;
	parent 45306161_RC_M;
	phases CS;
	nominal_voltage 120;
	latitude 49N8'18.845";
	longitude 123W28'19.324";
	power_1 0+0j;
	voltage_1 -60.000+103.923j;
	voltage_2 -60.000+103.923j;
	voltage_N 0;
}

object transformer:256  {
	phases "AS";
	from 40350742;
	to 40350742_RA_M;
	configuration transformer_configuration:52;
}

object triplex_meter:257 {
	name 40350742_RA_M;
	phases "AS";
	nominal_voltage 120;
	voltage_1 120;
	voltage_2 120;
	voltage_N 0;
}

object triplex_node:258 {
	name 40350742_RA_TX;
	parent 40350742_RA_M;
	phases AS;
	nominal_voltage 120;
	latitude 49N7'56.054";
	longitude 123W28'0.015";
	power_1 0+0j;
	voltage_1 120;
	voltage_2 120;
	voltage_N 0;
}

object transformer:259  {
	phases "CS";
	from 40350742;
	to 40350742_RC_M;
	configuration transformer_configuration:84;
}

object triplex_meter:260 {
	name 40350742_RC_M;
	phases "CS";
	nominal_voltage 120;
	voltage_1 -60.000+103.923j;
	voltage_2 -60.000+103.923j;
	voltage_N 0;
}

object triplex_node:261 {
	name 40350742_RC_TX;
	parent 40350742_RC_M;
	phases CS;
	nominal_voltage 120;
	latitude 49N7'56.054";
	longitude 123W28'0.015";
	power_1 0+0j;
	voltage_1 -60.000+103.923j;
	voltage_2 -60.000+103.923j;
	voltage_N 0;
}

object transformer:262  {
	phases "BS";
	from 45269784;
	to 45269784_RB_M;
	configuration transformer_configuration:66;
}

object triplex_meter:263 {
	name 45269784_RB_M;
	phases "BS";
	nominal_voltage 120;
	voltage_1 -60.000-103.923j;
	voltage_2 -60.000-103.923j;
	voltage_N 0;
}

object triplex_node:264 {
	name 45269784_RB_TX;
	parent 45269784_RB_M;
	phases BS;
	nominal_voltage 120;
	latitude 49N7'57.922";
	longitude 123W28'0.063";
	power_1 0+0j;
	voltage_1 -60.000-103.923j;
	voltage_2 -60.000-103.923j;
	voltage_N 0;
}

object transformer:265  {
	phases "BS";
	from 552341546;
	to 552341546_RB_M;
	configuration transformer_configuration:78;
}

object triplex_meter:266 {
	name 552341546_RB_M;
	phases "BS";
	nominal_voltage 120;
	voltage_1 -60.000-103.923j;
	voltage_2 -60.000-103.923j;
	voltage_N 0;
}

object triplex_node:267 {
	name 552341546_RB_TX;
	parent 552341546_RB_M;
	phases BS;
	nominal_voltage 120;
	latitude 49N7'59.130";
	longitude 123W28'0.124";
	power_1 0+0j;
	voltage_1 -60.000-103.923j;
	voltage_2 -60.000-103.923j;
	voltage_N 0;
}

object transformer:268  {
	phases "AS";