// $Id: R5-25.00-1.glm 1132 2008-11-18 22:36:10Z dchassin $ 
//*********************************************

clock { 
	 timezone EST+5EDT;
	 timestamp '2000-01-01 0:00:00';
}

//*********************************************
// modules
module powerflow;


object fuse:2393 {
	name R5-25-00-1_fuse_1;
	phases "CN";
	from node:916;
	to node:1786;
	current_limit 5000.0;
	status CLOSED;
}

object fuse:2394 {
	name R5-25-00-1_fuse_2;
	phases "BN";
	from node:917;
	to node:1805;
	current_limit 5000.0;
	status CLOSED;
}

object fuse:2404 {
	name R5-25-00-1_fuse_3;
	phases "BN";
	from node:936;
	to node:937;
	current_limit 5000.0;
	status CLOSED;
}

object fuse:2405 {
	name R5-25-00-1_fuse_4;
	phases "BN";
	from node:938;
	to node:939;
	current_limit 5000.0;
	status CLOSED;
}

object fuse:2420 {
	name R5-25-00-1_fuse_5;
	phases "BN";
	from node:1879;
	to node:1880;
	current_limit 5000.0;
	status CLOSED;
}

object fuse:2495 {
	name R5-25-00-1_fuse_6;
	phases "ABCN";
	from node:771;
	to node:1582;
	current_limit 5000.0;
	status CLOSED;
}

object fuse:2499 {
	name R5-25-00-1_fuse_7;
	phases "AN";
	from node:1587;
	to node:1744;
	current_limit 5000.0;
	status CLOSED;
}

object fuse:2502 {
	name R5-25-00-1_fuse_8;
	phases "CN";
	from node:1591;
	to node:1592;
	current_limit 5000.0;
	status CLOSED;
}

object fuse:2506 {
	name R5-25-00-1_fuse_9;
	phases "BN";
	from node:1404;
	to node:1631;
	current_limit 5000.0;
	status CLOSED;
}

object fuse:2518 {
	name R5-25-00-1_fuse_10;
	phases "ABCN";
	from node:745;
	to node:744;
	current_limit 5000.0;
	status CLOSED;
}

object fuse:2519 {
	name R5-25-00-1_fuse_11;
	phases "ABCN";
	from node:747;
	to node:746;
	current_limit 5000.0;
	status CLOSED;
}

object fuse:2539 {
	name R5-25-00-1_fuse_12;
	phases "ABCN";
	from node:770;
	to node:769;
	current_limit 5000.0;
	status CLOSED;
}

object fuse:2562 {
	name R5-25-00-1_fuse_13;
	phases "CN";
	from node:802;
	to node:1825;
	current_limit 5000.0;
	status CLOSED;
}

object fuse:2566 {
	name R5-25-00-1_fuse_14;
	phases "CN";
	from node:1377;
	to node:807;
	current_limit 5000.0;
	status CLOSED;
}

object fuse:2567 {
	name R5-25-00-1_fuse_15;
	phases "AN";
	from node:808;
	to node:1795;
	current_limit 5000.0;
	status CLOSED;
}

object fuse:2572 {
	name R5-25-00-1_fuse_16;
	phases "AN";
	from node:1757;
	to node:814;
	current_limit 5000.0;
	status CLOSED;
}

object fuse:2576 {
	name R5-25-00-1_fuse_17;
	phases "BN";
	from node:820;
	to node:821;
	current_limit 5000.0;
	status CLOSED;
}

object fuse:2580 {
	name R5-25-00-1_fuse_18;
	phases "BN";
	from node:828;
	to node:827;
	current_limit 5000.0;
	status CLOSED;
}

object fuse:2581 {
	name R5-25-00-1_fuse_19;
	phases "CN";
	from node:829;
	to node:830;
	current_limit 5000.0;
	status CLOSED;
}

object fuse:2589 {
	name R5-25-00-1_fuse_20;
	phases "CN";
	from node:1850;
	to node:1780;
	current_limit 5000.0;
	status CLOSED;
}

object fuse:2590 {
	name R5-25-00-1_fuse_21;
	phases "AN";
	from node:1849;
	to node:1852;
	current_limit 5000.0;
	status CLOSED;
}

object fuse:2598 {
	name R5-25-00-1_fuse_22;
	phases "AN";
	from node:857;
	to node:1799;
	current_limit 5000.0;
	status CLOSED;
}

object fuse:2599 {
	name R5-25-00-1_fuse_23;
	phases "CN";
	from node:858;
	to node:859;
	current_limit 5000.0;
	status CLOSED;
}

object fuse:2603 {
	name R5-25-00-1_fuse_24;
	phases "CN";
	from node:866;
	to node:867;
	current_limit 5000.0;
	status CLOSED;
}

object fuse:2604 {
	name R5-25-00-1_fuse_25;
	phases "CN";
	from node:1821;
	to node:868;
	current_limit 5000.0;
	status CLOSED;
}

object fuse:2608 {
	name R5-25-00-1_fuse_26;
	phases "CN";
	from node:1378;
	to node:874;
	current_limit 5000.0;
	status CLOSED;
}

object fuse:2609 {
	name R5-25-00-1_fuse_27;
	phases "CN";
	from node:875;
	to node:1761;
	current_limit 5000.0;
	status CLOSED;
}

object fuse:2613 {
	name R5-25-00-1_fuse_28;
	phases "CN";
	from node:881;
	to node:882;
	current_limit 5000.0;
	status CLOSED;
}

object fuse:2614 {
	name R5-25-00-1_fuse_29;
	phases "CN";
	from node:1850;
	to node:1777;
	current_limit 5000.0;
	status CLOSED;
}

object fuse:2618 {
	name R5-25-00-1_fuse_30;
	phases "AN";
	from node:887;
	to node:888;
	current_limit 5000.0;
	status CLOSED;
}

object fuse:2622 {
	name R5-25-00-1_fuse_31;
	phases "CN";
	from node:894;
	to node:1863;
	current_limit 5000.0;
	status CLOSED;
}

object fuse:2632 {
	name R5-25-00-1_fuse_32;
	phases "AN";
	from node:943;
	to node:1791;
	current_limit 5000.0;
	status CLOSED;
}

object fuse:2638 {
	name R5-25-00-1_fuse_33;
	phases "CN";
	from node:952;
	to node:1851;
	current_limit 5000.0;
	status CLOSED;
}

object fuse:2642 {
	name R5-25-00-1_fuse_34;
	phases "CN";
	from node:958;
	to node:959;
	current_limit 5000.0;
	status CLOSED;
}

object fuse:2643 {
	name R5-25-00-1_fuse_35;
	phases "AN";
	from node:916;
	to node:1787;
	current_limit 5000.0;
	status CLOSED;
}

object fuse:2671 {
	name R5-25-00-1_fuse_36;
	phases "AN";
	from node:894;
	to node:1788;
	current_limit 5000.0;
	status CLOSED;
}

object fuse:2672 {
	name R5-25-00-1_fuse_37;
	phases "AN";
	from node:1006;
	to node:1007;
	current_limit 5000.0;
	status CLOSED;
}

object fuse:2678 {
	name R5-25-00-1_fuse_38;
	phases "AN";
	from node:1020;
	to node:1021;
	current_limit 5000.0;
	status CLOSED;
}

object fuse:2679 {
	name R5-25-00-1_fuse_39;
	phases "BCN";
	from node:1733;
	to node:1676;
	current_limit 5000.0;
	status CLOSED;
}

object fuse:2705 {
	name R5-25-00-1_fuse_40;
	phases "ABN";
	from node:1055;
	to node:1056;
	current_limit 5000.0;
	status CLOSED;
}

object fuse:2736 {
	name R5-25-00-1_fuse_41;
	phases "AN";
	from node:1733;
	to node:1675;
	current_limit 5000.0;
	status CLOSED;
}

object fuse:2749 {
	name R5-25-00-1_fuse_42;
	phases "ABN";
	from node:1151;
	to node:1658;
	current_limit 5000.0;
	status CLOSED;
}

object fuse:2770 {
	name R5-25-00-1_fuse_43;
	phases "AN";
	from node:1191;
	to node:1192;
	current_limit 5000.0;
	status CLOSED;
}

object fuse:2778 {
	name R5-25-00-1_fuse_44;
	phases "AN";
	from node:1205;
	to node:1206;
	current_limit 5000.0;
	status CLOSED;
}

object fuse:2779 {
	name R5-25-00-1_fuse_45;
	phases "BN";
	from node:1207;
	to node:1210;
	current_limit 5000.0;
	status CLOSED;
}

object fuse:2783 {
	name R5-25-00-1_fuse_46;
	phases "AN";
	from node:1215;
	to node:1216;
	current_limit 5000.0;
	status CLOSED;
}

object fuse:2796 {
	name R5-25-00-1_fuse_47;
	phases "AN";
	from node:1236;
	to node:1237;
	current_limit 5000.0;
	status CLOSED;
}

object fuse:2808 {
	name R5-25-00-1_fuse_48;
	phases "AN";
	from node:1716;
	to node:1257;
	current_limit 5000.0;
	status CLOSED;
}

object fuse:2809 {
	name R5-25-00-1_fuse_49;
	phases "BN";
	from node:1259;
	to node:1260;
	current_limit 5000.0;
	status CLOSED;
}

object fuse:2829 {
	name R5-25-00-1_fuse_50;
	phases "CN";
	from node:1311;
	to node:1312;
	current_limit 5000.0;
	status CLOSED;
}

object fuse:2831 {
	name R5-25-00-1_fuse_51;
	phases "CN";
	from node:1769;
	to node:1770;
	current_limit 5000.0;
	status CLOSED;
}

object fuse:2833 {
	name R5-25-00-1_fuse_52;
	phases "BN";
	from node:1316;
	to node:1317;
	current_limit 5000.0;
	status CLOSED;
}

object fuse:2834 {
	name R5-25-00-1_fuse_53;
	phases "ACN";
	from node:1323;
	to node:1324;
	current_limit 5000.0;
	status CLOSED;
}

object fuse:2835 {
	name R5-25-00-1_fuse_54;
	phases "BN";
	from node:1848;
	to node:1782;
	current_limit 5000.0;
	status CLOSED;
}

object fuse:2837 {
	name R5-25-00-1_fuse_55;
	phases "CN";
	from node:1848;
	to node:1341;
	current_limit 5000.0;
	status CLOSED;
}

object fuse:2839 {
	name R5-25-00-1_fuse_56;
	phases "CN";
	from node:1849;
	to node:1759;
	current_limit 5000.0;
	status CLOSED;
}

object fuse:2841 {
	name R5-25-00-1_fuse_57;
	phases "CN";
	from node:1335;
	to node:1346;
	current_limit 5000.0;
	status CLOSED;
}

object fuse:2845 {
	name R5-25-00-1_fuse_58;
	phases "BN";
	from node:1352;
	to node:1864;
	current_limit 5000.0;
	status CLOSED;
}

object fuse:2847 {
	name R5-25-00-1_fuse_59;
	phases "BN";
	from node:1356;
	to node:1319;
	current_limit 5000.0;
	status CLOSED;
}

object fuse:2849 {
	name R5-25-00-1_fuse_60;
	phases "CN";
	from node:1359;
	to node:1360;
	current_limit 5000.0;
	status CLOSED;
}

object fuse:2850 {
	name R5-25-00-1_fuse_61;
	phases "BN";
	from node:958;
	to node:1758;
	current_limit 5000.0;
	status CLOSED;
}

object fuse:2851 {
	name R5-25-00-1_fuse_62;
	phases "CN";
	from node:1366;
	to node:1364;
	current_limit 5000.0;
	status CLOSED;
}

object fuse:2852 {
	name R5-25-00-1_fuse_63;
	phases "AN";
	from node:1754;
	to node:1755;
	current_limit 5000.0;
	status CLOSED;
}

object fuse:2853 {
	name R5-25-00-1_fuse_64;
	phases "CN";
	from node:1390;
	to node:1391;
	current_limit 5000.0;
	status CLOSED;
}

object fuse:2854 {
	name R5-25-00-1_fuse_65;
	phases "CN";
	from node:1393;
	to node:1394;
	current_limit 5000.0;
	status CLOSED;
}

object fuse:2855 {
	name R5-25-00-1_fuse_66;
	phases "ABCN";
	from node:1716;
	to node:1625;
	current_limit 5000.0;
	status CLOSED;
}

object fuse:2858 {
	name R5-25-00-1_fuse_67;
	phases "AN";
	from node:1408;
	to node:1409;
	current_limit 5000.0;
	status CLOSED;
}

object fuse:2859 {
	name R5-25-00-1_fuse_68;
	phases "ABCN";
	from node:1734;
	to node:1413;
	current_limit 5000.0;
	status CLOSED;
}

object fuse:2860 {
	name R5-25-00-1_fuse_69;
	phases "CN";
	from node:1734;
	to node:1671;
	current_limit 5000.0;
	status CLOSED;
}

object fuse:2861 {
	name R5-25-00-1_fuse_70;
	phases "BN";
	from node:1422;
	to node:1423;
	current_limit 5000.0;
	status CLOSED;
}

object fuse:2862 {
	name R5-25-00-1_fuse_71;
	phases "BN";
	from node:1425;
	to node:1426;
	current_limit 5000.0;
	status CLOSED;
}

object fuse:2863 {
	name R5-25-00-1_fuse_72;
	phases "BN";
	from node:1874;
	to node:1429;
	current_limit 5000.0;
	status CLOSED;
}

object fuse:2892 {
	name R5-25-00-1_fuse_73;
	phases "ABCN";
	from node:755;
	to node:754;
	current_limit 5000.0;
	status CLOSED;
}

object fuse:2893 {
	name R5-25-00-1_fuse_74;
	phases "ABCN";
	from node:793;
	to node:792;
	current_limit 5000.0;
	status CLOSED;
}

object fuse:2894 {
	name R5-25-00-1_fuse_75;
	phases "ABCN";
	from node:781;
	to node:780;
	current_limit 5000.0;
	status CLOSED;
}


object line_configuration:1897 {
	conductor_A underground_line_conductor:43;
	conductor_N underground_line_conductor:43;
	spacing line_spacing:1896;
}

object line_configuration:1899 {
	conductor_A underground_line_conductor:43;
	conductor_B underground_line_conductor:43;
	conductor_C underground_line_conductor:43;
	conductor_N underground_line_conductor:43;
	spacing line_spacing:1898;
}

object line_configuration:1901 {
	conductor_C underground_line_conductor:48;
	conductor_N underground_line_conductor:48;
	spacing line_spacing:1900;
}

object line_configuration:1903 {
	conductor_B underground_line_conductor:48;
	conductor_N underground_line_conductor:48;
	spacing line_spacing:1902;
}

object line_configuration:1904 {
	conductor_C underground_line_conductor:48;
	conductor_N underground_line_conductor:48;
	spacing line_spacing:1900;
}

object line_configuration:1905 {
	conductor_A underground_line_conductor:48;
	conductor_B underground_line_conductor:48;
	conductor_C underground_line_conductor:48;
	conductor_N underground_line_conductor:48;
	spacing line_spacing:1898;
}

object line_configuration:1906 {
	conductor_A underground_line_conductor:49;
	conductor_B underground_line_conductor:49;
	conductor_C underground_line_conductor:49;
	conductor_N underground_line_conductor:49;
	spacing line_spacing:1898;
}

object line_configuration:1908 {
	conductor_B underground_line_conductor:48;
	conductor_C underground_line_conductor:48;
	conductor_N underground_line_conductor:48;
	spacing line_spacing:1907;
}

object line_configuration:1909 {
	conductor_A overhead_line_conductor:30;
	conductor_B overhead_line_conductor:30;
	conductor_C overhead_line_conductor:30;
	conductor_N overhead_line_conductor:30;
	spacing line_spacing:1898;
}

object line_configuration:1910 {
	conductor_A overhead_line_conductor:20;
	conductor_B overhead_line_conductor:20;
	conductor_C overhead_line_conductor:20;
	conductor_N overhead_line_conductor:20;
	spacing line_spacing:1898;
}

object line_configuration:1912 {
	conductor_A underground_line_conductor:43;
	conductor_B underground_line_conductor:43;
	conductor_N underground_line_conductor:43;
	spacing line_spacing:1911;
}

object line_configuration:1913 {
	conductor_A overhead_line_conductor:15;
	conductor_N overhead_line_conductor:15;
	spacing line_spacing:1896;
}

object line_configuration:1914 {
	conductor_B underground_line_conductor:48;
	conductor_N underground_line_conductor:48;
	spacing line_spacing:1902;
}

object line_configuration:1915 {
	conductor_B underground_line_conductor:48;
	conductor_C underground_line_conductor:48;
	conductor_N underground_line_conductor:48;
	spacing line_spacing:1907;
}

object line_configuration:1916 {
	conductor_A overhead_line_conductor:29;
	conductor_B overhead_line_conductor:29;
	conductor_C overhead_line_conductor:29;
	conductor_N overhead_line_conductor:29;
	spacing line_spacing:1898;
}

object line_configuration:1917 {
	conductor_A overhead_line_conductor:37;
	conductor_B overhead_line_conductor:37;
	conductor_C overhead_line_conductor:37;
	conductor_N overhead_line_conductor:37;
	spacing line_spacing:1898;
}

object line_configuration:1918 {
	conductor_A underground_line_conductor:41;
	conductor_N underground_line_conductor:41;
	spacing line_spacing:1896;
}

object line_configuration:1919 {
	conductor_C underground_line_conductor:48;
	conductor_N underground_line_conductor:48;
	spacing line_spacing:1900;
}

object line_configuration:1921 {
	conductor_A overhead_line_conductor:15;
	conductor_C overhead_line_conductor:15;
	conductor_N overhead_line_conductor:15;
	spacing line_spacing:1920;
}

object line_configuration:1922 {
	conductor_A overhead_line_conductor:20;
	conductor_N overhead_line_conductor:20;
	spacing line_spacing:1896;
}

object line_configuration:1923 {
	conductor_A overhead_line_conductor:15;
	conductor_B overhead_line_conductor:15;
	conductor_C overhead_line_conductor:15;
	conductor_N overhead_line_conductor:15;
	spacing line_spacing:1898;
}

object line_configuration:1924 {
	conductor_A overhead_line_conductor:37;
	conductor_B overhead_line_conductor:37;
	conductor_C overhead_line_conductor:37;
	conductor_N overhead_line_conductor:37;
	spacing line_spacing:1898;
}

object line_configuration:1925 {
	conductor_A overhead_line_conductor:29;
	conductor_B overhead_line_conductor:29;
	conductor_C overhead_line_conductor:29;
	conductor_N overhead_line_conductor:29;
	spacing line_spacing:1898;
}

object line_configuration:1926 {
	conductor_A overhead_line_conductor:15;
	conductor_B overhead_line_conductor:15;
	conductor_C overhead_line_conductor:15;
	conductor_N overhead_line_conductor:15;
	spacing line_spacing:1898;
}

object line_configuration:1927 {
	conductor_A underground_line_conductor:46;
	conductor_B underground_line_conductor:46;
	conductor_C underground_line_conductor:46;
	conductor_N underground_line_conductor:46;
	spacing line_spacing:1898;
}

object line_configuration:1928 {
	conductor_A underground_line_conductor:47;
	conductor_B underground_line_conductor:47;
	conductor_C underground_line_conductor:47;
	conductor_N underground_line_conductor:47;
	spacing line_spacing:1898;
}

object line_configuration:1930 {
	conductor_C overhead_line_conductor:40;
	conductor_N overhead_line_conductor:40;
	spacing line_spacing:1929;
}

object line_configuration:1932 {
	conductor_B overhead_line_conductor:40;
	conductor_N overhead_line_conductor:40;
	spacing line_spacing:1931;
}

object line_configuration:1933 {
	conductor_A overhead_line_conductor:15;
	conductor_B overhead_line_conductor:15;
	conductor_C overhead_line_conductor:15;
	conductor_N overhead_line_conductor:15;
	spacing line_spacing:1898;
}

object line_configuration:1935 {
	conductor_A overhead_line_conductor:40;
	conductor_B overhead_line_conductor:40;
	conductor_C overhead_line_conductor:40;
	conductor_N overhead_line_conductor:40;
	spacing line_spacing:1934;
}

object line_configuration:1937 {
	conductor_A overhead_line_conductor:40;
	conductor_N overhead_line_conductor:40;
	spacing line_spacing:1936;
}

object line_configuration:1939 {
	conductor_B overhead_line_conductor:40;
	conductor_C overhead_line_conductor:40;
	conductor_N overhead_line_conductor:40;
	spacing line_spacing:1938;
}

object line_configuration:1941 {
	conductor_A overhead_line_conductor:40;
	conductor_B overhead_line_conductor:40;
	conductor_N overhead_line_conductor:40;
	spacing line_spacing:1940;
}

object line_configuration:1943 {
	conductor_A overhead_line_conductor:40;
	conductor_C overhead_line_conductor:40;
	conductor_N overhead_line_conductor:40;
	spacing line_spacing:1942;
}


object line_spacing:1896 {
	distance_AN 36.0 in;
}

object line_spacing:1898 {
	distance_AB 48.0 in;
	distance_BC 48.0 in;
	distance_AC 48.0 in;
	distance_AN 36.0 in;
	distance_BN 36.0 in;
	distance_CN 36.0 in;
}

object line_spacing:1900 {
	distance_CN 36.0 in;
}

object line_spacing:1902 {
	distance_BN 36.0 in;
}

object line_spacing:1907 {
	distance_BC 48.0 in;
	distance_BN 36.0 in;
	distance_CN 36.0 in;
}

object line_spacing:1911 {
	distance_AB 48.0 in;
	distance_AN 36.0 in;
	distance_BN 36.0 in;
}

object line_spacing:1920 {
	distance_AC 48.0 in;
	distance_AN 36.0 in;
	distance_CN 36.0 in;
}

object line_spacing:1929 {
	distance_CN 48.0 in;
}

object line_spacing:1931 {
	distance_BN 48.0 in;
}

object line_spacing:1934 {
	distance_AB 56.0 in;
	distance_BC 56.0 in;
	distance_AC 56.0 in;
	distance_AN 48.0 in;
	distance_BN 48.0 in;
	distance_CN 48.0 in;
}

object line_spacing:1936 {
	distance_AN 48.0 in;
}

object line_spacing:1938 {
	distance_BC 56.0 in;
	distance_BN 48.0 in;
	distance_CN 48.0 in;
}

object line_spacing:1940 {
	distance_AB 56.0 in;
	distance_AN 48.0 in;
	distance_BN 48.0 in;
}

object line_spacing:1942 {
	distance_AC 56.0 in;
	distance_AN 48.0 in;
	distance_CN 48.0 in;
}


object load {
	name R5-25-00-1_load_1;
	parent R5-25-00-1_meter_1;
	phases "ABCN";
	nominal_voltage 13221.321;
	voltage_A 13221.321+0.0j;
	voltage_B -6610.660-11450.000j;
	voltage_C -6610.660+11450.000j;
	constant_power_A 0.000+0.000j;
	constant_power_B 0.000+0.000j;
	constant_power_C 0.000+0.000j;
	load_class "C";
}

object load {
	name R5-25-00-1_load_2;
	parent R5-25-00-1_meter_2;
	phases "ABCN";
	nominal_voltage 13221.321;
	voltage_A 13221.321+0.0j;
	voltage_B -6610.660-11450.000j;
	voltage_C -6610.660+11450.000j;
	constant_power_A 0.000+0.000j;
	constant_power_B 0.000+0.000j;
	constant_power_C 0.000+0.000j;
	load_class "C";
}

object load {
	name R5-25-00-1_load_3;
	parent R5-25-00-1_meter_3;
	phases "ABCN";
	nominal_voltage 13221.321;
	voltage_A 13221.321+0.0j;
	voltage_B -6610.660-11450.000j;
	voltage_C -6610.660+11450.000j;
	constant_power_A 199800.000+96765.360j;
	constant_power_B 199800.000+96765.360j;
	constant_power_C 199800.000+96765.360j;
	load_class "C";
}

object load {
	name R5-25-00-1_load_4;
	parent R5-25-00-1_meter_4;
	phases "ABCN";
	nominal_voltage 13221.321;
	voltage_A 13221.321+0.0j;
	voltage_B -6610.660-11450.000j;
	voltage_C -6610.660+11450.000j;
	constant_power_A 0.000+0.000j;
	constant_power_B 0.000+0.000j;
	constant_power_C 0.000+0.000j;
	load_class "C";
}

object load {
	name R5-25-00-1_load_5;
	parent R5-25-00-1_meter_5;
	phases "ABCN";
	nominal_voltage 13221.321;
	voltage_A 13221.321+0.0j;
	voltage_B -6610.660-11450.000j;
	voltage_C -6610.660+11450.000j;
	constant_power_A 0.000+0.000j;
	constant_power_B 0.000+0.000j;
	constant_power_C 0.000+0.000j;
	load_class "C";
}

object load {
	name R5-25-00-1_load_6;
	parent R5-25-00-1_meter_6;
	phases "ABCN";
	nominal_voltage 13221.321;
	voltage_A 13221.321+0.0j;
	voltage_B -6610.660-11450.000j;
	voltage_C -6610.660+11450.000j;
	constant_power_A 0.000+0.000j;
	constant_power_B 0.000+0.000j;
	constant_power_C 0.000+0.000j;
	load_class "C";
}

object load {
	name R5-25-00-1_load_7;
	parent R5-25-00-1_meter_7;
	phases "ABCN";
	nominal_voltage 13221.321;
	voltage_A 13221.321+0.0j;
	voltage_B -6610.660-11450.000j;
	voltage_C -6610.660+11450.000j;
	constant_power_A 0.000+0.000j;
	constant_power_B 0.000+0.000j;
	constant_power_C 0.000+0.000j;
	load_class "C";
}

object load {
	name R5-25-00-1_load_8;
	parent R5-25-00-1_meter_8;
	phases "ABCN";
	nominal_voltage 13221.321;
	voltage_A 13221.321+0.0j;
	voltage_B -6610.660-11450.000j;
	voltage_C -6610.660+11450.000j;
	constant_power_A 0.000+0.000j;
	constant_power_B 0.000+0.000j;
	constant_power_C 0.000+0.000j;
	load_class "C";
}

object load {
	name R5-25-00-1_load_9;
	parent R5-25-00-1_meter_9;
	phases "ABCN";
	nominal_voltage 13221.321;
	voltage_A 13221.321+0.0j;
	voltage_B -6610.660-11450.000j;
	voltage_C -6610.660+11450.000j;
	constant_power_A 0.000+0.000j;
	constant_power_B 0.000+0.000j;
	constant_power_C 0.000+0.000j;
	load_class "C";
}

object load {
	name R5-25-00-1_load_10;
	parent R5-25-00-1_meter_10;
	phases "ABCN";
	nominal_voltage 13221.321;
	voltage_A 13221.321+0.0j;
	voltage_B -6610.660-11450.000j;
	voltage_C -6610.660+11450.000j;
	constant_power_A 0.000+0.000j;
	constant_power_B 0.000+0.000j;
	constant_power_C 0.000+0.000j;
	load_class "C";
}

object load {
	name R5-25-00-1_load_11;
	parent R5-25-00-1_meter_11;
	phases "ABCN";
	nominal_voltage 13221.321;
	voltage_A 13221.321+0.0j;
	voltage_B -6610.660-11450.000j;
	voltage_C -6610.660+11450.000j;
	constant_power_A 0.000+0.000j;
	constant_power_B 0.000+0.000j;
	constant_power_C 0.000+0.000j;
	load_class "C";
}

object load {
	name R5-25-00-1_load_12;
	parent R5-25-00-1_meter_12;
	phases "ABCN";
	nominal_voltage 13221.321;
	voltage_A 13221.321+0.0j;
	voltage_B -6610.660-11450.000j;
	voltage_C -6610.660+11450.000j;
	constant_power_A 0.000+0.000j;
	constant_power_B 0.000+0.000j;
	constant_power_C 0.000+0.000j;
	load_class "C";
}


object meter:131 {
	name R5-25-00-1_meter_1;
	phases "ABCN";
	nominal_voltage 13221.321;
	voltage_A 13221.321+0.0j;
	voltage_B -6610.660-11450.000j;
	voltage_C -6610.660+11450.000j;
}

object meter:133 {
	name R5-25-00-1_meter_2;
	phases "ABCN";
	nominal_voltage 13221.321;
	voltage_A 13221.321+0.0j;
	voltage_B -6610.660-11450.000j;
	voltage_C -6610.660+11450.000j;
}

object meter:135 {
	name R5-25-00-1_meter_3;
	phases "ABCN";
	nominal_voltage 13221.321;
	voltage_A 13221.321+0.0j;
	voltage_B -6610.660-11450.000j;
	voltage_C -6610.660+11450.000j;
}

object meter:359 {
	name R5-25-00-1_meter_4;
	phases "ABCN";
	nominal_voltage 13221.321;
	voltage_A 13221.321+0.0j;
	voltage_B -6610.660-11450.000j;
	voltage_C -6610.660+11450.000j;
}

object meter:364 {
	name R5-25-00-1_meter_5;
	phases "ABCN";
	nominal_voltage 13221.321;
	voltage_A 13221.321+0.0j;
	voltage_B -6610.660-11450.000j;
	voltage_C -6610.660+11450.000j;
}

object meter:552 {
	name R5-25-00-1_meter_6;
	phases "ABCN";
	nominal_voltage 13221.321;
	voltage_A 13221.321+0.0j;
	voltage_B -6610.660-11450.000j;
	voltage_C -6610.660+11450.000j;
}

object meter:554 {
	name R5-25-00-1_meter_7;
	phases "ABCN";
	nominal_voltage 13221.321;
	voltage_A 13221.321+0.0j;
	voltage_B -6610.660-11450.000j;
	voltage_C -6610.660+11450.000j;
}

object meter:556 {
	name R5-25-00-1_meter_8;
	phases "ABCN";
	nominal_voltage 13221.321;
	voltage_A 13221.321+0.0j;
	voltage_B -6610.660-11450.000j;
	voltage_C -6610.660+11450.000j;
}

object meter:600 {
	name R5-25-00-1_meter_9;
	phases "ABCN";
	nominal_voltage 13221.321;
	voltage_A 13221.321+0.0j;
	voltage_B -6610.660-11450.000j;
	voltage_C -6610.660+11450.000j;
}

object meter:602 {
	name R5-25-00-1_meter_10;
	phases "ABCN";
	nominal_voltage 13221.321;
	voltage_A 13221.321+0.0j;
	voltage_B -6610.660-11450.000j;
	voltage_C -6610.660+11450.000j;
}

object meter:604 {
	name R5-25-00-1_meter_11;
	phases "ABCN";
	nominal_voltage 13221.321;
	voltage_A 13221.321+0.0j;
	voltage_B -6610.660-11450.000j;
	voltage_C -6610.660+11450.000j;
}

object meter:687 {
	name R5-25-00-1_meter_12;
	phases "ABCN";
	nominal_voltage 13221.321;
	voltage_A 13221.321+0.0j;
	voltage_B -6610.660-11450.000j;
	voltage_C -6610.660+11450.000j;
}

// Meter at feeder
object meter:736 {
	name R5-25-00-1_meter_13;
	phases "ABCN";
	nominal_voltage 13221.321;
	voltage_A 13221.321+0.0j;
	voltage_B -6610.660-11450.000j;
	voltage_C -6610.660+11450.000j;
}


object node:738 {
	name R5-25-00-1_node_1;
	phases "ABCN";
	nominal_voltage 13221.321;
	voltage_A 13221.321+0.0j;
	voltage_B -6610.660-11450.000j;
	voltage_C -6610.660+11450.000j;
}

object node:739 {
	name R5-25-00-1_node_2;
	phases "ABCN";
	nominal_voltage 13221.321;
	voltage_A 13221.321+0.0j;
	voltage_B -6610.660-11450.000j;
	voltage_C -6610.660+11450.000j;
}

object node:740 {
	name R5-25-00-1_node_3;
	phases "ABCN";
	nominal_voltage 13221.321;
	voltage_A 13221.321+0.0j;
	voltage_B -6610.660-11450.000j;
	voltage_C -6610.660+11450.000j;
}

object node:741 {
	name R5-25-00-1_node_4;
	phases "ABCN";
	nominal_voltage 13221.321;
	voltage_A 13221.321+0.0j;
	voltage_B -6610.660-11450.000j;
	voltage_C -6610.660+11450.000j;
}

object node:742 {
	name R5-25-00-1_node_5;
	phases "ABCN";
	nominal_voltage 13221.321;
	voltage_A 13221.321+0.0j;
	voltage_B -6610.660-11450.000j;
	voltage_C -6610.660+11450.000j;
}

object node:743 {
	name R5-25-00-1_node_6;
	phases "ABCN";
	nominal_voltage 13221.321;
	voltage_A 13221.321+0.0j;
	voltage_B -6610.660-11450.000j;
	voltage_C -6610.660+11450.000j;
}

object node:744 {
	name R5-25-00-1_node_7;
	phases "ABCN";
	nominal_voltage 13221.321;
	voltage_A 13221.321+0.0j;
	voltage_B -6610.660-11450.000j;
	voltage_C -6610.660+11450.000j;
}

object node:745 {
	name R5-25-00-1_node_8;
	phases "ABCN";
	nominal_voltage 13221.321;
	voltage_A 13221.321+0.0j;
	voltage_B -6610.660-11450.000j;
	voltage_C -6610.660+11450.000j;
}

object node:746 {
	name R5-25-00-1_node_9;
	phases "ABCN";
	nominal_voltage 13221.321;
	voltage_A 13221.321+0.0j;
	voltage_B -6610.660-11450.000j;
	voltage_C -6610.660+11450.000j;
}

object node:747 {
	name R5-25-00-1_node_10;
	phases "ABCN";
	nominal_voltage 13221.321;
	voltage_A 13221.321+0.0j;
	voltage_B -6610.660-11450.000j;
	voltage_C -6610.660+11450.000j;
}

object node:748 {
	name R5-25-00-1_node_11;
	phases "ABCN";
	nominal_voltage 13221.321;
	voltage_A 13221.321+0.0j;
	voltage_B -6610.660-11450.000j;
	voltage_C -6610.660+11450.000j;
}

object node:749 {
	name R5-25-00-1_node_12;
	phases "ABCN";
	nominal_voltage 13221.321;
	voltage_A 13221.321+0.0j;
	voltage_B -6610.660-11450.000j;
	voltage_C -6610.660+11450.000j;
}

object node:750 {
	name R5-25-00-1_node_13;
	phases "ABCN";
	nominal_voltage 13221.321;
	voltage_A 13221.321+0.0j;
	voltage_B -6610.660-11450.000j;
	voltage_C -6610.660+11450.000j;
}

object node:751 {
	name R5-25-00-1_node_14;
	phases "ABCN";
	nominal_voltage 13221.321;
	voltage_A 13221.321+0.0j;
	voltage_B -6610.660-11450.000j;
	voltage_C -6610.660+11450.000j;
}

object node:752 {
	name R5-25-00-1_node_15;
	phases "ABCN";
	nominal_voltage 13221.321;
	voltage_A 13221.321+0.0j;
	voltage_B -6610.660-11450.000j;
	voltage_C -6610.660+11450.000j;
}

object node:753 {
	name R5-25-00-1_node_16;
	phases "ABCN";
	nominal_voltage 13221.321;
	voltage_A 13221.321+0.0j;
	voltage_B -6610.660-11450.000j;
	voltage_C -6610.660+11450.000j;
}

object node:754 {
	name R5-25-00-1_node_17;
	phases "ABCN";
	nominal_voltage 13221.321;
	voltage_A 13221.321+0.0j;
	voltage_B -6610.660-11450.000j;
	voltage_C -6610.660+11450.000j;
}

object node:755 {
	name R5-25-00-1_node_18;
	phases "ABCN";
	nominal_voltage 13221.321;
	voltage_A 13221.321+0.0j;
	voltage_B -6610.660-11450.000j;
	voltage_C -6610.660+11450.000j;
}

object node:756 {
	name R5-25-00-1_node_19;
	phases "ABCN";
	nominal_voltage 13221.321;
	voltage_A 13221.321+0.0j;
	voltage_B -6610.660-11450.000j;
	voltage_C -6610.660+11450.000j;
}

object node:757 {
	name R5-25-00-1_node_20;
	phases "ABCN";
	nominal_voltage 13221.321;
	voltage_A 13221.321+0.0j;
	voltage_B -6610.660-11450.000j;
	voltage_C -6610.660+11450.000j;
}

object node:758 {
	name R5-25-00-1_node_21;
	phases "ABCN";
	nominal_voltage 13221.321;
	voltage_A 13221.321+0.0j;
	voltage_B -6610.660-11450.000j;
	voltage_C -6610.660+11450.000j;
}

object node:759 {
	name R5-25-00-1_node_22;
	phases "ABCN";
	nominal_voltage 13221.321;
	voltage_A 13221.321+0.0j;
	voltage_B -6610.660-11450.000j;
	voltage_C -6610.660+11450.000j;
}

object node:760 {
	name R5-25-00-1_node_23;
	phases "ABCN";
	nominal_voltage 13221.321;
	voltage_A 13221.321+0.0j;