//*********************************************
// $Id: R5-35.00-1.glm 1132 2008-11-18 22:36:10Z dchassin $ 
//*********************************************

clock { 
	 timezone EST+5EDT;
	 timestamp '2000-01-01 00:00:00';
}

//*********************************************
// modules
module powerflow;


object triplex_line_conductor: {
	name 1/0 AA triplex;
	resistance 0.97;
	geometric_mean_radius 0.0111;
}

object triplex_line_configuration:1 {
	conductor_1 1/0 AA triplex;
	conductor_2 1/0 AA triplex;
	conductor_N 1/0 AA triplex;
	insulation_thickness 0.08;
	diameter 0.368;
}

object transformer:106  {
	phases "A|B|C|N";
	from 102941496ABC;
	to 102941496ABC_U_M;
	configuration transformer_configuration:83;
}

object meter:107 {
	name 102941496ABC_U_M;
	phases "ABCN";
	nominal_voltage 19918.584;
	voltage_A 19918.584+0.0j;
	voltage_B -9959.292-17250.000j;
	voltage_C -9959.292+17250.000j;
}
object transformer:108  {
	phases "AS";
	from 102942059A;
	to 102942059A_UA_M;
	configuration transformer_configuration:52;
}

object triplex_meter:109 {
	name 102942059A_UA_M;
	phases "AS";
	nominal_voltage 120;
	voltage_1 120;
	voltage_2 120;
	voltage_N 0;
}

object triplex_node:110 {
	name 102942059A_UA_TX;
	parent 102942059A_UA_M;
	phases AS;
	nominal_voltage 120;
	latitude 50N0'25.500";
	longitude 124W49'44.491";
	power_1 49.2+27.9j;
	voltage_1 120;
	voltage_2 120;
	voltage_N 0;
}

object transformer:111  {
	phases "AS";
	from 102942312A;
	to 102942312A_UA_M;
	configuration transformer_configuration:53;
}

object triplex_meter:112 {
	name 102942312A_UA_M;
	phases "AS";
	nominal_voltage 120;
	voltage_1 120;
	voltage_2 120;
	voltage_N 0;
}

object triplex_node:113 {
	name 102942312A_UA_TX;
	parent 102942312A_UA_M;
	phases AS;
	nominal_voltage 120;
	latitude 50N0'30.344";
	longitude 124W49'48.939";
	power_1 43.5+24.7j;
	voltage_1 120;
	voltage_2 120;
	voltage_N 0;
}

object transformer:114  {
	phases "AS";
	from 102943382A;
	to 102943382A_UA_M;
	configuration transformer_configuration:52;
}

object triplex_meter:115 {
	name 102943382A_UA_M;
	phases "AS";
	nominal_voltage 120;
	voltage_1 120;
	voltage_2 120;
	voltage_N 0;
}

object triplex_node:116 {
	name 102943382A_UA_TX;
	parent 102943382A_UA_M;
	phases AS;
	nominal_voltage 120;
	latitude 50N0'28.552";
	longitude 124W49'45.238";
	power_1 72.6+41.2j;
	voltage_1 120;
	voltage_2 120;
	voltage_N 0;
}

object transformer:117  {
	phases "A|B|C|N";
	from 103616536ABC;
	to 103616536ABC_U_M;
	configuration transformer_configuration:86;
}

object meter:118 {
	name 103616536ABC_U_M;
	phases "ABCN";
	nominal_voltage 19918.584;
	voltage_A 19918.584+0.0j;
	voltage_B -9959.292-17250.000j;
	voltage_C -9959.292+17250.000j;
}
object transformer:119  {
	phases "A|B|C|N";
	from 103752341ABC;
	to 103752341ABC_U_M;
	configuration transformer_configuration:86;
}

object meter:120 {
	name 103752341ABC_U_M;
	phases "ABCN";
	nominal_voltage 19918.584;
	voltage_A 19918.584+0.0j;
	voltage_B -9959.292-17250.000j;
	voltage_C -9959.292+17250.000j;
}
object transformer:121  {
	phases "AS";
	from 104325941A;
	to 104325941A_UA_M;
	configuration transformer_configuration:51;
}

object triplex_meter:122 {
	name 104325941A_UA_M;
	phases "AS";
	nominal_voltage 120;
	voltage_1 120;
	voltage_2 120;
	voltage_N 0;
}

object triplex_node:123 {
	name 104325941A_UA_TX;
	parent 104325941A_UA_M;
	phases AS;
	nominal_voltage 120;
	latitude 50N0'31.927";
	longitude 124W50'31.217";
	power_1 87.4+49.5j;
	voltage_1 120;
	voltage_2 120;
	voltage_N 0;
}

object transformer:124  {
	phases "BS";
	from 104346533B;
	to 104346533B_UB_M;
	configuration transformer_configuration:64;
}

object triplex_meter:125 {
	name 104346533B_UB_M;
	phases "BS";
	nominal_voltage 120;
	voltage_1 -60.000-103.923j;
	voltage_2 -60.000-103.923j;
	voltage_N 0;
}

object triplex_node:126 {
	name 104346533B_UB_TX;
	parent 104346533B_UB_M;
	phases BS;
	nominal_voltage 120;
	latitude 50N0'22.452";
	longitude 124W49'37.375";
	power_1 52.5+29.7j;
	voltage_1 -60.000-103.923j;
	voltage_2 -60.000-103.923j;
	voltage_N 0;
}

object transformer:127  {
	phases "AS";
	from 104346577A;
	to 104346577A_UA_M;
	configuration transformer_configuration:52;
}

object triplex_meter:128 {
	name 104346577A_UA_M;
	phases "AS";
	nominal_voltage 120;
	voltage_1 120;
	voltage_2 120;
	voltage_N 0;
}

object triplex_node:129 {
	name 104346577A_UA_TX;
	parent 104346577A_UA_M;
	phases AS;
	nominal_voltage 120;
	latitude 50N0'19.776";
	longitude 124W49'38.707";
	power_1 60.8+34.4j;
	voltage_1 120;
	voltage_2 120;
	voltage_N 0;
}

object transformer:130  {
	phases "AS";
	from 104346630A;
	to 104346630A_UA_M;
	configuration transformer_configuration:54;
}

object triplex_meter:131 {
	name 104346630A_UA_M;
	phases "AS";
	nominal_voltage 120;
	voltage_1 120;
	voltage_2 120;
	voltage_N 0;
}

object triplex_node:132 {
	name 104346630A_UA_TX;
	parent 104346630A_UA_M;
	phases AS;
	nominal_voltage 120;
	latitude 50N0'22.260";
	longitude 124W49'43.717";
	power_1 47.1+26.7j;
	voltage_1 120;
	voltage_2 120;
	voltage_N 0;
}

object transformer:133  {
	phases "BS";
	from 104346688B;
	to 104346688B_UB_M;
	configuration transformer_configuration:65;
}

object triplex_meter:134 {
	name 104346688B_UB_M;
	phases "BS";
	nominal_voltage 120;
	voltage_1 -60.000-103.923j;
	voltage_2 -60.000-103.923j;
	voltage_N 0;
}

object triplex_node:135 {
	name 104346688B_UB_TX;
	parent 104346688B_UB_M;
	phases BS;
	nominal_voltage 120;
	latitude 50N0'25.580";
	longitude 124W49'40.664";
	power_1 35.7+20.2j;
	voltage_1 -60.000-103.923j;
	voltage_2 -60.000-103.923j;
	voltage_N 0;
}

object transformer:136  {
	phases "A|B|C|N";
	from 104486736ABC;
	to 104486736ABC_U_M;
	configuration transformer_configuration:83;
}

object meter:137 {
	name 104486736ABC_U_M;
	phases "ABCN";
	nominal_voltage 19918.584;
	voltage_A 19918.584+0.0j;
	voltage_B -9959.292-17250.000j;
	voltage_C -9959.292+17250.000j;
}
object transformer:138  {
	phases "AS";
	from 105211697A;
	to 105211697A_UA_M;
	configuration transformer_configuration:51;
}

object triplex_meter:139 {
	name 105211697A_UA_M;
	phases "AS";
	nominal_voltage 120;
	voltage_1 120;
	voltage_2 120;
	voltage_N 0;
}

object triplex_node:140 {
	name 105211697A_UA_TX;
	parent 105211697A_UA_M;
	phases AS;
	nominal_voltage 120;
	latitude 50N0'17.657";
	longitude 124W52'7.405";
	power_1 144.4+79.8j;
	voltage_1 120;
	voltage_2 120;
	voltage_N 0;
}

object transformer:141  {
	phases "A|B|C|N";
	from 106405999ABC;
	to 106405999ABC_U_M;
	configuration transformer_configuration:91;
}

object meter:142 {
	name 106405999ABC_U_M;
	phases "ABCN";
	nominal_voltage 19918.584;
	voltage_A 19918.584+0.0j;
	voltage_B -9959.292-17250.000j;
	voltage_C -9959.292+17250.000j;
}
object transformer:143  {
	phases "A|B|C|N";
	from 107299603ABC;
	to 107299603ABC_U_M;
	configuration transformer_configuration:86;
}

object meter:144 {
	name 107299603ABC_U_M;
	phases "ABCN";
	nominal_voltage 19918.584;
	voltage_A 19918.584+0.0j;
	voltage_B -9959.292-17250.000j;
	voltage_C -9959.292+17250.000j;
}
object transformer:145  {
	phases "A|B|C|N";
	from 107299700ABC;
	to 107299700ABC_U_M;
	configuration transformer_configuration:92;
}

object meter:146 {
	name 107299700ABC_U_M;
	phases "ABCN";
	nominal_voltage 19918.584;
	voltage_A 19918.584+0.0j;
	voltage_B -9959.292-17250.000j;
	voltage_C -9959.292+17250.000j;
}
object transformer:147  {
	phases "A|B|C|N";
	from 109257981ABC;
	to 109257981ABC_U_M;
	configuration transformer_configuration:92;
}

object meter:148 {
	name 109257981ABC_U_M;
	phases "ABCN";
	nominal_voltage 19918.584;
	voltage_A 19918.584+0.0j;
	voltage_B -9959.292-17250.000j;
	voltage_C -9959.292+17250.000j;
}
object transformer:149  {
	phases "A|B|C|N";
	from 72028016ABC;
	to 72028016ABC_U_M;
	configuration transformer_configuration:94;
}

object meter:150 {
	name 72028016ABC_U_M;
	phases "ABCN";
	nominal_voltage 19918.584;
	voltage_A 19918.584+0.0j;
	voltage_B -9959.292-17250.000j;
	voltage_C -9959.292+17250.000j;
}
object transformer:151  {
	phases "AS";
	from 72235686A;
	to 72235686A_UA_M;
	configuration transformer_configuration:54;
}

object triplex_meter:152 {
	name 72235686A_UA_M;
	phases "AS";
	nominal_voltage 120;
	voltage_1 120;
	voltage_2 120;
	voltage_N 0;
}

object triplex_node:153 {
	name 72235686A_UA_TX;
	parent 72235686A_UA_M;
	phases AS;
	nominal_voltage 120;
	latitude 49N59'57.160";
	longitude 124W50'41.835";
	power_1 82.9+47j;
	voltage_1 120;
	voltage_2 120;
	voltage_N 0;
}

object transformer:154  {
	phases "AS";
	from 72235862A;
	to 72235862A_UA_M;
	configuration transformer_configuration:53;
}

object triplex_meter:155 {
	name 72235862A_UA_M;
	phases "AS";
	nominal_voltage 120;
	voltage_1 120;
	voltage_2 120;
	voltage_N 0;
}

object triplex_node:156 {
	name 72235862A_UA_TX;
	parent 72235862A_UA_M;
	phases AS;
	nominal_voltage 120;
	latitude 49N59'58.640";
	longitude 124W50'49.281";
	power_1 66.4+37.6j;
	voltage_1 120;
	voltage_2 120;
	voltage_N 0;
}

object transformer:157  {
	phases "AS";
	from 72239135A;
	to 72239135A_UA_M;
	configuration transformer_configuration:54;
}

object triplex_meter:158 {
	name 72239135A_UA_M;
	phases "AS";
	nominal_voltage 120;
	voltage_1 120;
	voltage_2 120;
	voltage_N 0;
}

object triplex_node:159 {
	name 72239135A_UA_TX;
	parent 72239135A_UA_M;
	phases AS;
	nominal_voltage 120;
	latitude 50N0'15.171";
	longitude 124W49'35.965";
	power_1 36.1+20.4j;
	voltage_1 120;
	voltage_2 120;
	voltage_N 0;
}

object transformer:160  {
	phases "A|B|C|N";
	from 72241209ABC;
	to 72241209ABC_U_M;
	configuration transformer_configuration:95;
}

object meter:161 {
	name 72241209ABC_U_M;
	phases "ABCN";
	nominal_voltage 19918.584;
	voltage_A 19918.584+0.0j;
	voltage_B -9959.292-17250.000j;
	voltage_C -9959.292+17250.000j;
}
object transformer:162  {
	phases "AS";
	from 72265907A;
	to 72265907A_UA_M;
	configuration transformer_configuration:52;
}

object triplex_meter:163 {
	name 72265907A_UA_M;
	phases "AS";
	nominal_voltage 120;
	voltage_1 120;
	voltage_2 120;
	voltage_N 0;
}

object triplex_node:164 {
	name 72265907A_UA_TX;
	parent 72265907A_UA_M;
	phases AS;
	nominal_voltage 120;
	latitude 50N0'14.362";
	longitude 124W50'33.087";
	power_1 42.1+23.8j;
	voltage_1 120;
	voltage_2 120;
	voltage_N 0;
}

object transformer:165  {
	phases "BS";
	from 72267414B;
	to 72267414B_UB_M;
	configuration transformer_configuration:65;
}

object triplex_meter:166 {
	name 72267414B_UB_M;
	phases "BS";
	nominal_voltage 120;
	voltage_1 -60.000-103.923j;
	voltage_2 -60.000-103.923j;
	voltage_N 0;
}

object triplex_node:167 {
	name 72267414B_UB_TX;
	parent 72267414B_UB_M;
	phases BS;
	nominal_voltage 120;
	latitude 50N0'14.981";
	longitude 124W50'42.775";
	power_1 56.3+31.9j;
	voltage_1 -60.000-103.923j;
	voltage_2 -60.000-103.923j;
	voltage_N 0;
}

object transformer:168  {
	phases "AS";
	from 72990993A;
	to 72990993A_UA_M;
	configuration transformer_configuration:52;
}

object triplex_meter:169 {
	name 72990993A_UA_M;
	phases "AS";
	nominal_voltage 120;
	voltage_1 120;
	voltage_2 120;
	voltage_N 0;
}

object triplex_node:170 {
	name 72990993A_UA_TX;
	parent 72990993A_UA_M;
	phases AS;
	nominal_voltage 120;
	latitude 50N0'45.413";
	longitude 124W50'13.889";
	power_1 67.4+38.2j;
	voltage_1 120;
	voltage_2 120;
	voltage_N 0;
}

object transformer:171  {
	phases "BS";
	from 73357726B;
	to 73357726B_UB_M;
	configuration transformer_configuration:65;
}

object triplex_meter:172 {
	name 73357726B_UB_M;
	phases "BS";
	nominal_voltage 120;
	voltage_1 -60.000-103.923j;
	voltage_2 -60.000-103.923j;
	voltage_N 0;
}

object triplex_node:173 {
	name 73357726B_UB_TX;
	parent 73357726B_UB_M;
	phases BS;
	nominal_voltage 120;
	latitude 49N59'50.018";
	longitude 124W50'55.439";
	power_1 102.2+55.5j;
	voltage_1 -60.000-103.923j;
	voltage_2 -60.000-103.923j;
	voltage_N 0;
}

object transformer:174  {
	phases "BS";
	from 73357774B;
	to 73357774B_UB_M;
	configuration transformer_configuration:63;
}

object triplex_meter:175 {
	name 73357774B_UB_M;
	phases "BS";
	nominal_voltage 120;
	voltage_1 -60.000-103.923j;
	voltage_2 -60.000-103.923j;
	voltage_N 0;
}

object triplex_node:176 {
	name 73357774B_UB_TX;
	parent 73357774B_UB_M;
	phases BS;
	nominal_voltage 120;
	latitude 49N59'49.985";
	longitude 124W50'51.789";
	power_1 47.7+27j;
	voltage_1 -60.000-103.923j;
	voltage_2 -60.000-103.923j;
	voltage_N 0;
}

object transformer:177  {
	phases "BS";
	from 73357824B;
	to 73357824B_UB_M;
	configuration transformer_configuration:64;
}

object triplex_meter:178 {
	name 73357824B_UB_M;
	phases "BS";
	nominal_voltage 120;
	voltage_1 -60.000-103.923j;
	voltage_2 -60.000-103.923j;
	voltage_N 0;
}

object triplex_node:179 {
	name 73357824B_UB_TX;
	parent 73357824B_UB_M;
	phases BS;
	nominal_voltage 120;
	latitude 49N59'52.829";
	longitude 124W50'51.024";
	power_1 90.2+51.1j;
	voltage_1 -60.000-103.923j;
	voltage_2 -60.000-103.923j;
	voltage_N 0;
}

object transformer:180  {
	phases "BS";
	from 73357876B;
	to 73357876B_UB_M;
	configuration transformer_configuration:65;
}

object triplex_meter:181 {
	name 73357876B_UB_M;
	phases "BS";
	nominal_voltage 120;
	voltage_1 -60.000-103.923j;
	voltage_2 -60.000-103.923j;
	voltage_N 0;
}

object triplex_node:182 {
	name 73357876B_UB_TX;
	parent 73357876B_UB_M;
	phases BS;
	nominal_voltage 120;
	latitude 49N59'53.252";
	longitude 124W50'54.297";
	power_1 86.8+47.8j;
	voltage_1 -60.000-103.923j;
	voltage_2 -60.000-103.923j;
	voltage_N 0;
}

object transformer:183  {
	phases "BS";
	from 73358033B;
	to 73358033B_UB_M;
	configuration transformer_configuration:62;
}

object triplex_meter:184 {
	name 73358033B_UB_M;
	phases "BS";
	nominal_voltage 120;
	voltage_1 -60.000-103.923j;
	voltage_2 -60.000-103.923j;
	voltage_N 0;
}

object triplex_node:185 {
	name 73358033B_UB_TX;
	parent 73358033B_UB_M;
	phases BS;
	nominal_voltage 120;
	latitude 49N59'53.095";
	longitude 124W50'59.485";
	power_1 92.1+51.3j;
	voltage_1 -60.000-103.923j;
	voltage_2 -60.000-103.923j;
	voltage_N 0;
}

object transformer:186  {
	phases "AS";
	from 73358423A;
	to 73358423A_UA_M;
	configuration transformer_configuration:54;
}

object triplex_meter:187 {
	name 73358423A_UA_M;
	phases "AS";
	nominal_voltage 120;
	voltage_1 120;
	voltage_2 120;
	voltage_N 0;
}

object triplex_node:188 {
	name 73358423A_UA_TX;
	parent 73358423A_UA_M;
	phases AS;
	nominal_voltage 120;
	latitude 49N59'48.515";
	longitude 124W50'29.710";
	power_1 49.1+27.8j;
	voltage_1 120;
	voltage_2 120;
	voltage_N 0;
}

object transformer:189  {
	phases "AS";
	from 73358553A;
	to 73358553A_UA_M;
	configuration transformer_configuration:54;
}

object triplex_meter:190 {
	name 73358553A_UA_M;
	phases "AS";
	nominal_voltage 120;
	voltage_1 120;
	voltage_2 120;
	voltage_N 0;
}

object triplex_node:191 {
	name 73358553A_UA_TX;
	parent 73358553A_UA_M;
	phases AS;
	nominal_voltage 120;
	latitude 49N59'43.758";
	longitude 124W50'33.537";
	power_1 126.8+71.9j;
	voltage_1 120;
	voltage_2 120;
	voltage_N 0;
}

object transformer:192  {
	phases "AS";
	from 73358652A;
	to 73358652A_UA_M;
	configuration transformer_configuration:54;
}

object triplex_meter:193 {
	name 73358652A_UA_M;
	phases "AS";
	nominal_voltage 120;
	voltage_1 120;
	voltage_2 120;
	voltage_N 0;
}

object triplex_node:194 {
	name 73358652A_UA_TX;
	parent 73358652A_UA_M;
	phases AS;
	nominal_voltage 120;
	latitude 49N59'47.382";
	longitude 124W50'25.723";
	power_1 35.3+20j;
	voltage_1 120;
	voltage_2 120;
	voltage_N 0;
}

object transformer:195  {
	phases "AS";
	from 73390321A;
	to 73390321A_UA_M;
	configuration transformer_configuration:54;
}

object triplex_meter:196 {
	name 73390321A_UA_M;
	phases "AS";
	nominal_voltage 120;
	voltage_1 120;
	voltage_2 120;
	voltage_N 0;
}

object triplex_node:197 {
	name 73390321A_UA_TX;
	parent 73390321A_UA_M;
	phases AS;
	nominal_voltage 120;
	latitude 49N59'59.511";
	longitude 124W50'57.922";
	power_1 73.6+41.7j;
	voltage_1 120;
	voltage_2 120;
	voltage_N 0;
}

object transformer:198  {
	phases "AS";
	from 73390422A;
	to 73390422A_UA_M;
	configuration transformer_configuration:52;
}

object triplex_meter:199 {
	name 73390422A_UA_M;
	phases "AS";
	nominal_voltage 120;
	voltage_1 120;
	voltage_2 120;
	voltage_N 0;
}

object triplex_node:200 {
	name 73390422A_UA_TX;
	parent 73390422A_UA_M;
	phases AS;
	nominal_voltage 120;
	latitude 49N59'59.820";
	longitude 124W51'2.647";
	power_1 72.1+40.9j;
	voltage_1 120;
	voltage_2 120;
	voltage_N 0;
}

object transformer:201  {
	phases "AS";
	from 73414935A;
	to 73414935A_UA_M;
	configuration transformer_configuration:52;
}

object triplex_meter:202 {
	name 73414935A_UA_M;
	phases "AS";
	nominal_voltage 120;
	voltage_1 120;
	voltage_2 120;
	voltage_N 0;
}

object triplex_node:203 {
	name 73414935A_UA_TX;
	parent 73414935A_UA_M;
	phases AS;
	nominal_voltage 120;
	latitude 49N59'50.356";
	longitude 124W50'33.834";
	power_1 24.7+14j;
	voltage_1 120;
	voltage_2 120;
	voltage_N 0;
}

object transformer:204  {
	phases "AS";
	from 73414983A;
	to 73414983A_UA_M;
	configuration transformer_configuration:52;
}

object triplex_meter:205 {
	name 73414983A_UA_M;
	phases "AS";
	nominal_voltage 120;
	voltage_1 120;
	voltage_2 120;
	voltage_N 0;
}

object triplex_node:206 {
	name 73414983A_UA_TX;
	parent 73414983A_UA_M;
	phases AS;
	nominal_voltage 120;
	latitude 49N59'47.205";
	longitude 124W50'39.264";
	power_1 61+32.4j;
	voltage_1 120;
	voltage_2 120;
	voltage_N 0;
}

object transformer:207  {
	phases "AS";
	from 73415033A;
	to 73415033A_UA_M;
	configuration transformer_configuration:52;
}

object triplex_meter:208 {
	name 73415033A_UA_M;
	phases "AS";
	nominal_voltage 120;
	voltage_1 120;
	voltage_2 120;
	voltage_N 0;
}

object triplex_node:209 {
	name 73415033A_UA_TX;
	parent 73415033A_UA_M;
	phases AS;
	nominal_voltage 120;
	latitude 49N59'47.210";
	longitude 124W50'45.079";
	power_1 36.2+20.5j;
	voltage_1 120;
	voltage_2 120;
	voltage_N 0;
}

object transformer:210  {
	phases "AS";
	from 73415085A;
	to 73415085A_UA_M;
	configuration transformer_configuration:54;
}

object triplex_meter:211 {
	name 73415085A_UA_M;
	phases "AS";
	nominal_voltage 120;
	voltage_1 120;
	voltage_2 120;
	voltage_N 0;
}

object triplex_node:212 {
	name 73415085A_UA_TX;
	parent 73415085A_UA_M;
	phases AS;
	nominal_voltage 120;
	latitude 49N59'48.702";
	longitude 124W50'43.658";
	power_1 54+26.2j;
	voltage_1 120;
	voltage_2 120;
	voltage_N 0;
}

object transformer:213  {
	phases "AS";
	from 73415114A;
	to 73415114A_UA_M;
	configuration transformer_configuration:54;
}

object triplex_meter:214 {
	name 73415114A_UA_M;
	phases "AS";
	nominal_voltage 120;
	voltage_1 120;
	voltage_2 120;
	voltage_N 0;
}

object triplex_node:215 {
	name 73415114A_UA_TX;
	parent 73415114A_UA_M;
	phases AS;
	nominal_voltage 120;
	latitude 49N59'50.989";
	longitude 124W50'42.190";
	power_1 103.1+58.4j;
	voltage_1 120;
	voltage_2 120;
	voltage_N 0;
}

object transformer:216  {
	phases "AS";
	from 74097701A;
	to 74097701A_UA_M;
	configuration transformer_configuration:54;
}

object triplex_meter:217 {
	name 74097701A_UA_M;
	phases "AS";
	nominal_voltage 120;
	voltage_1 120;
	voltage_2 120;
	voltage_N 0;
}

object triplex_node:218 {
	name 74097701A_UA_TX;
	parent 74097701A_UA_M;
	phases AS;
	nominal_voltage 120;
	latitude 49N59'42.737";
	longitude 124W50'37.738";
	power_1 35.8+20.3j;
	voltage_1 120;
	voltage_2 120;
	voltage_N 0;
}

object transformer:219  {
	phases "BS";
	from 74162379B;
	to 74162379B_UB_M;
	configuration transformer_configuration:65;
}

object triplex_meter:220 {
	name 74162379B_UB_M;
	phases "BS";
	nominal_voltage 120;
	voltage_1 -60.000-103.923j;
	voltage_2 -60.000-103.923j;
	voltage_N 0;
}

object triplex_node:221 {
	name 74162379B_UB_TX;
	parent 74162379B_UB_M;
	phases BS;
	nominal_voltage 120;
	latitude 50N0'36.393";
	longitude 124W50'0.681";
	power_1 84.2+45.2j;
	voltage_1 -60.000-103.923j;
	voltage_2 -60.000-103.923j;
	voltage_N 0;
}

object transformer:222  {
	phases "AS";
	from 74162866A;
	to 74162866A_UA_M;
	configuration transformer_configuration:52;
}

object triplex_meter:223 {
	name 74162866A_UA_M;
	phases "AS";
	nominal_voltage 120;
	voltage_1 120;
	voltage_2 120;
	voltage_N 0;
}

object triplex_node:224 {
	name 74162866A_UA_TX;
	parent 74162866A_UA_M;
	phases AS;
	nominal_voltage 120;
	latitude 49N59'56.980";
	longitude 124W50'57.163";
	power_1 82.9+44.6j;
	voltage_1 120;
	voltage_2 120;
	voltage_N 0;
}

object transformer:225  {
	phases "BS";
	from 76948637B;
	to 76948637B_UB_M;
	configuration transformer_configuration:65;
}

object triplex_meter:226 {
	name 76948637B_UB_M;
	phases "BS";
	nominal_voltage 120;
	voltage_1 -60.000-103.923j;
	voltage_2 -60.000-103.923j;
	voltage_N 0;
}

object triplex_node:227 {
	name 76948637B_UB_TX;
	parent 76948637B_UB_M;
	phases BS;
	nominal_voltage 120;
	latitude 50N0'22.285";
	longitude 124W49'32.718";
	power_1 54.2+30.7j;
	voltage_1 -60.000-103.923j;
	voltage_2 -60.000-103.923j;
	voltage_N 0;
}

object transformer:228  {
	phases "BS";
	from 76948739B;
	to 76948739B_UB_M;
	configuration transformer_configuration:65;
}

object triplex_meter:229 {
	name 76948739B_UB_M;
	phases "BS";
	nominal_voltage 120;
	voltage_1 -60.000-103.923j;
	voltage_2 -60.000-103.923j;
	voltage_N 0;
}

object triplex_node:230 {
	name 76948739B_UB_TX;
	parent 76948739B_UB_M;
	phases BS;
	nominal_voltage 120;
	latitude 50N0'28.752";
	longitude 124W49'35.677";
	power_1 61.3+34.3j;
	voltage_1 -60.000-103.923j;
	voltage_2 -60.000-103.923j;
	voltage_N 0;
}

object transformer:231  {
	phases "BS";
	from 76948807B;
	to 76948807B_UB_M;
	configuration transformer_configuration:64;
}

object triplex_meter:232 {
	name 76948807B_UB_M;
	phases "BS";
	nominal_voltage 120;
	voltage_1 -60.000-103.923j;
	voltage_2 -60.000-103.923j;
	voltage_N 0;
}

object triplex_node:233 {
	name 76948807B_UB_TX;
	parent 76948807B_UB_M;
	phases BS;
	nominal_voltage 120;
	latitude 50N0'19.237";
	longitude 124W49'32.976";
	power_1 68.3+38.7j;
	voltage_1 -60.000-103.923j;
	voltage_2 -60.000-103.923j;
	voltage_N 0;
}

object transformer:234  {
	phases "BS";
	from 76950224B;
	to 76950224B_UB_M;
	configuration transformer_configuration:65;
}

object triplex_meter:235 {
	name 76950224B_UB_M;
	phases "BS";
	nominal_voltage 120;
	voltage_1 -60.000-103.923j;
	voltage_2 -60.000-103.923j;
	voltage_N 0;
}

object triplex_node:236 {
	name 76950224B_UB_TX;
	parent 76950224B_UB_M;
	phases BS;
	nominal_voltage 120;
	latitude 50N0'25.232";
	longitude 124W49'36.724";
	power_1 57.6+32.6j;
	voltage_1 -60.000-103.923j;
	voltage_2 -60.000-103.923j;
	voltage_N 0;
}

object transformer:237  {
	phases "BS";
	from 76950258B;
	to 76950258B_UB_M;
	configuration transformer_configuration:65;
}

object triplex_meter:238 {
	name 76950258B_UB_M;
	phases "BS";
	nominal_voltage 120;
	voltage_1 -60.000-103.923j;
	voltage_2 -60.000-103.923j;
	voltage_N 0;
}

object triplex_node:239 {
	name 76950258B_UB_TX;
	parent 76950258B_UB_M;
	phases BS;
	nominal_voltage 120;
	latitude 50N0'28.313";
	longitude 124W49'40.236";
	power_1 59.3+33.6j;
	voltage_1 -60.000-103.923j;
	voltage_2 -60.000-103.923j;
	voltage_N 0;
}

object transformer:240  {
	phases "BS";
	from 76950424B;
	to 76950424B_UB_M;
	configuration transformer_configuration:62;
}

object triplex_meter:241 {
	name 76950424B_UB_M;
	phases "BS";
	nominal_voltage 120;
	voltage_1 -60.000-103.923j;
	voltage_2 -60.000-103.923j;
	voltage_N 0;
}

object triplex_node:242 {
	name 76950424B_UB_TX;
	parent 76950424B_UB_M;
	phases BS;
	nominal_voltage 120;
	latitude 50N0'21.520";
	longitude 124W50'0.165";
	power_1 130.8+72.6j;
	voltage_1 -60.000-103.923j;
	voltage_2 -60.000-103.923j;
	voltage_N 0;
}

object transformer:243  {
	phases "BS";
	from 76950490B;
	to 76950490B_UB_M;
	configuration transformer_configuration:62;
}

object triplex_meter:244 {
	name 76950490B_UB_M;
	phases "BS";
	nominal_voltage 120;
	voltage_1 -60.000-103.923j;
	voltage_2 -60.000-103.923j;
	voltage_N 0;
}

object triplex_node:245 {
	name 76950490B_UB_TX;
	parent 76950490B_UB_M;
	phases BS;
	nominal_voltage 120;
	latitude 50N0'18.849";
	longitude 124W50'4.204";
	power_1 71.2+39.1j;
	voltage_1 -60.000-103.923j;
	voltage_2 -60.000-103.923j;
	voltage_N 0;
}

object transformer:246  {
	phases "A|B|C|N";
	from 76950696ABC;
	to 76950696ABC_U_M;
	configuration transformer_configuration:86;
}

object meter:247 {
	name 76950696ABC_U_M;
	phases "ABCN";
	nominal_voltage 19918.584;
	voltage_A 19918.584+0.0j;
	voltage_B -9959.292-17250.000j;
	voltage_C -9959.292+17250.000j;
}
object transformer:248  {
	phases "BS";
	from 76950998B;
	to 76950998B_UB_M;
	configuration transformer_configuration:62;
}

object triplex_meter:249 {
	name 76950998B_UB_M;
	phases "BS";
	nominal_voltage 120;
	voltage_1 -60.000-103.923j;
	voltage_2 -60.000-103.923j;
	voltage_N 0;
}

object triplex_node:250 {
	name 76950998B_UB_TX;
	parent 76950998B_UB_M;
	phases BS;
	nominal_voltage 120;
	latitude 50N0'22.571";
	longitude 124W50'9.538";
	power_1 101+57.2j;
	voltage_1 -60.000-103.923j;
	voltage_2 -60.000-103.923j;
	voltage_N 0;
}

object transformer:251  {
	phases "BS";
	from 76951032B;
	to 76951032B_UB_M;
	configuration transformer_configuration:65;
}

object triplex_meter:252 {
	name 76951032B_UB_M;
	phases "BS";
	nominal_voltage 120;
	voltage_1 -60.000-103.923j;
	voltage_2 -60.000-103.923j;
	voltage_N 0;
}

object triplex_node:253 {
	name 76951032B_UB_TX;
	parent 76951032B_UB_M;
	phases BS;
	nominal_voltage 120;
	latitude 50N0'24.062";
	longitude 124W50'17.590";
	power_1 69.6+37.6j;
	voltage_1 -60.000-103.923j;
	voltage_2 -60.000-103.923j;
	voltage_N 0;
}

object transformer:254  {
	phases "BS";
	from 76951066B;
	to 76951066B_UB_M;
	configuration transformer_configuration:65;
}

object triplex_meter:255 {
	name 76951066B_UB_M;
	phases "BS";
	nominal_voltage 120;
	voltage_1 -60.000-103.923j;
	voltage_2 -60.000-103.923j;
	voltage_N 0;
}

object triplex_node:256 {
	name 76951066B_UB_TX;
	parent 76951066B_UB_M;
	phases BS;
	nominal_voltage 120;
	latitude 50N0'29.566";
	longitude 124W50'17.570";
	power_1 45.6+24.2j;
	voltage_1 -60.000-103.923j;
	voltage_2 -60.000-103.923j;
	voltage_N 0;
}

object transformer:257  {
	phases "BS";
	from 76951100B;
	to 76951100B_UB_M;
	configuration transformer_configuration:65;
}

object triplex_meter:258 {
	name 76951100B_UB_M;
	phases "BS";
	nominal_voltage 120;
	voltage_1 -60.000-103.923j;
	voltage_2 -60.000-103.923j;
	voltage_N 0;
}

object triplex_node:259 {
	name 76951100B_UB_TX;
	parent 76951100B_UB_M;
	phases BS;
	nominal_voltage 120;
	latitude 50N0'28.924";
	longitude 124W50'6.076";
	power_1 90.5+51.3j;
	voltage_1 -60.000-103.923j;
	voltage_2 -60.000-103.923j;
	voltage_N 0;
}

object transformer:260  {
	phases "BS";
	from 76951134B;
	to 76951134B_UB_M;
	configuration transformer_configuration:65;
}

object triplex_meter:261 {
	name 76951134B_UB_M;
	phases "BS";
	nominal_voltage 120;
	voltage_1 -60.000-103.923j;
	voltage_2 -60.000-103.923j;
	voltage_N 0;
}

object triplex_node:262 {
	name 76951134B_UB_TX;
	parent 76951134B_UB_M;
	phases BS;
	nominal_voltage 120;
	latitude 50N0'31.505";
	longitude 124W50'13.101";
	power_1 73.5+41.7j;
	voltage_1 -60.000-103.923j;
	voltage_2 -60.000-103.923j;
	voltage_N 0;
}

object transformer:263  {
	phases "AS";
	from 76951204A;
	to 76951204A_UA_M;
	configuration transformer_configuration:52;
}

object triplex_meter:264 {
	name 76951204A_UA_M;
	phases "AS";
	nominal_voltage 120;
	voltage_1 120;
	voltage_2 120;
	voltage_N 0;
}

object triplex_node:265 {
	name 76951204A_UA_TX;
	parent 76951204A_UA_M;
	phases AS;
	nominal_voltage 120;
	latitude 50N0'30.565";
	longitude 124W50'25.789";
	power_1 85.5+48.5j;
	voltage_1 120;
	voltage_2 120;
	voltage_N 0;
}

object transformer:266  {
	phases "AS";
	from 76951236A;
	to 76951236A_UA_M;
	configuration transformer_configuration:52;
}

object triplex_meter:267 {
	name 76951236A_UA_M;
	phases "AS";
	nominal_voltage 120;
	voltage_1 120;
	voltage_2 120;
	voltage_N 0;
}

object triplex_node:268 {
	name 76951236A_UA_TX;
	parent 76951236A_UA_M;
	phases AS;
	nominal_voltage 120;
	latitude 50N0'25.135";
	longitude 124W50'29.057";
	power_1 61.8+34j;
	voltage_1 120;
	voltage_2 120;
	voltage_N 0;
}

object transformer:269  {
	phases "AS";
	from 76951270A;
	to 76951270A_UA_M;
	configuration transformer_configuration:52;
}

object triplex_meter:270 {
	name 76951270A_UA_M;
	phases "AS";
	nominal_voltage 120;
	voltage_1 120;
	voltage_2 120;
	voltage_N 0;
}

object triplex_node:271 {
	name 76951270A_UA_TX;
	parent 76951270A_UA_M;