// $Id: R5-35.00-1.glm 228 2009-05-27 18:16:10Z ychen $ 
//*********************************************

clock { 
	 timezone EST+5EDT;
	 timestamp '2000-01-01 00:00:00';
}

//*********************************************
// modules
module powerflow;


object fuse:990 {
	name R5-35-00-1_fuse_1;
	phases "ABCN";
	from R5-35-00-1_node_248;
	to R5-35-00-1_node_308;
	current_limit 3000.0;
	status CLOSED;
}

object fuse:991 {
	name R5-35-00-1_fuse_2;
	phases "ABCN";
	from R5-35-00-1_node_247;
	to R5-35-00-1_node_309;
	current_limit 3000.0;
	status CLOSED;
}

object fuse:1013 {
	name R5-35-00-1_fuse_3;
	phases "CN";
	from R5-35-00-1_node_332;
	to R5-35-00-1_node_331;
	current_limit 3000.0;
	status CLOSED;
}

object fuse:1019 {
	name R5-35-00-1_fuse_4;
	phases "CN";
	from R5-35-00-1_node_333;
	to R5-35-00-1_node_337;
	current_limit 3000.0;
	status CLOSED;
}

object fuse:1040 {
	name R5-35-00-1_fuse_5;
	phases "BN";
	from R5-35-00-1_node_207;
	to R5-35-00-1_node_21;
	current_limit 3000.0;
	status CLOSED;
}

object fuse:1041 {
	name R5-35-00-1_fuse_6;
	phases "CN";
	from R5-35-00-1_node_211;
	to R5-35-00-1_node_22;
	current_limit 3000.0;
	status CLOSED;
}

object fuse:1046 {
	name R5-35-00-1_fuse_7;
	phases "AN";
	from R5-35-00-1_node_210;
	to R5-35-00-1_node_27;
	current_limit 3000.0;
	status CLOSED;
}

object fuse:1054 {
	name R5-35-00-1_fuse_8;
	phases "BN";
	from R5-35-00-1_node_191;
	to R5-35-00-1_node_35;
	current_limit 3000.0;
	status CLOSED;
}

object fuse:1063 {
	name R5-35-00-1_fuse_9;
	phases "CN";
	from R5-35-00-1_node_190;
	to R5-35-00-1_node_44;
	current_limit 3000.0;
	status CLOSED;
}

object fuse:1079 {
	name R5-35-00-1_fuse_10;
	phases "CN";
	from R5-35-00-1_node_241;
	to R5-35-00-1_node_60;
	current_limit 3000.0;
	status CLOSED;
}

object fuse:1089 {
	name R5-35-00-1_fuse_11;
	phases "BN";
	from R5-35-00-1_node_240;
	to R5-35-00-1_node_70;
	current_limit 3000.0;
	status CLOSED;
}

object fuse:1091 {
	name R5-35-00-1_fuse_12;
	phases "AN";
	from R5-35-00-1_node_242;
	to R5-35-00-1_node_72;
	current_limit 3000.0;
	status CLOSED;
}

object fuse:1098 {
	name R5-35-00-1_fuse_13;
	phases "AN";
	from R5-35-00-1_node_257;
	to R5-35-00-1_node_79;
	current_limit 3000.0;
	status CLOSED;
}

object fuse:1100 {
	name R5-35-00-1_fuse_14;
	phases "BN";
	from R5-35-00-1_node_199;
	to R5-35-00-1_node_81;
	current_limit 3000.0;
	status CLOSED;
}

object fuse:1101 {
	name R5-35-00-1_fuse_15;
	phases "CN";
	from R5-35-00-1_node_196;
	to R5-35-00-1_node_82;
	current_limit 3000.0;
	status CLOSED;
}

object fuse:1102 {
	name R5-35-00-1_fuse_16;
	phases "AN";
	from R5-35-00-1_node_200;
	to R5-35-00-1_node_83;
	current_limit 3000.0;
	status CLOSED;
}

object fuse:1121 {
	name R5-35-00-1_fuse_17;
	phases "CN";
	from R5-35-00-1_node_232;
	to R5-35-00-1_node_102;
	current_limit 3000.0;
	status CLOSED;
}

object fuse:1122 {
	name R5-35-00-1_fuse_18;
	phases "BN";
	from R5-35-00-1_node_233;
	to R5-35-00-1_node_103;
	current_limit 3000.0;
	status CLOSED;
}

object fuse:1131 {
	name R5-35-00-1_fuse_19;
	phases "AN";
	from R5-35-00-1_node_189;
	to R5-35-00-1_node_112;
	current_limit 3000.0;
	status CLOSED;
}

object fuse:1140 {
	name R5-35-00-1_fuse_20;
	phases "CN";
	from R5-35-00-1_node_218;
	to R5-35-00-1_node_121;
	current_limit 3000.0;
	status CLOSED;
}

object fuse:1154 {
	name R5-35-00-1_fuse_21;
	phases "ABCN";
	from R5-35-00-1_node_134;
	to R5-35-00-1_node_135;
	current_limit 3000.0;
	status CLOSED;
}

object fuse:1184 {
	name R5-35-00-1_fuse_22;
	phases "ABCN";
	from R5-35-00-1_node_166;
	to R5-35-00-1_node_165;
	current_limit 3000.0;
	status CLOSED;
}

object fuse:1188 {
	name R5-35-00-1_fuse_23;
	phases "ABCN";
	from R5-35-00-1_node_175;
	to R5-35-00-1_node_169;
	current_limit 3000.0;
	status CLOSED;
}

object fuse:1192 {
	name R5-35-00-1_fuse_24;
	phases "ABCN";
	from R5-35-00-1_node_174;
	to R5-35-00-1_node_173;
	current_limit 3000.0;
	status CLOSED;
}

object fuse:1198 {
	name R5-35-00-1_fuse_25;
	phases "ABCN";
	from R5-35-00-1_node_183;
	to R5-35-00-1_node_179;
	current_limit 3000.0;
	status CLOSED;
}

object fuse:1200 {
	name R5-35-00-1_fuse_26;
	phases "ABCN";
	from R5-35-00-1_node_182;
	to R5-35-00-1_node_181;
	current_limit 3000.0;
	status CLOSED;
}

object fuse:1202 {
	name R5-35-00-1_fuse_27;
	phases "ABCN";
	from R5-35-00-1_node_293;
	to R5-35-00-1_node_183;
	current_limit 3000.0;
	status CLOSED;
}

object fuse:1233 {
	name R5-35-00-1_fuse_28;
	phases "ABCN";
	from R5-35-00-1_node_216;
	to R5-35-00-1_node_214;
	current_limit 3000.0;
	status CLOSED;
}

object fuse:1243 {
	name R5-35-00-1_fuse_29;
	phases "AN";
	from R5-35-00-1_node_234;
	to R5-35-00-1_node_224;
	current_limit 3000.0;
	status CLOSED;
}

object fuse:1244 {
	name R5-35-00-1_fuse_30;
	phases "ABCN";
	from R5-35-00-1_node_231;
	to R5-35-00-1_node_225;
	current_limit 3000.0;
	status CLOSED;
}

object fuse:1271 {
	name R5-35-00-1_fuse_31;
	phases "CN";
	from R5-35-00-1_node_261;
	to R5-35-00-1_node_252;
	current_limit 3000.0;
	status CLOSED;
}

object fuse:1283 {
	name R5-35-00-1_fuse_32;
	phases "BN";
	from R5-35-00-1_node_260;
	to R5-35-00-1_node_264;
	current_limit 3000.0;
	status CLOSED;
}

object fuse:1289 {
	name R5-35-00-1_fuse_33;
	phases "CN";
	from R5-35-00-1_node_283;
	to R5-35-00-1_node_270;
	current_limit 3000.0;
	status CLOSED;
}

object fuse:1290 {
	name R5-35-00-1_fuse_34;
	phases "AN";
	from R5-35-00-1_node_284;
	to R5-35-00-1_node_271;
	current_limit 3000.0;
	status CLOSED;
}

object fuse:1295 {
	name R5-35-00-1_fuse_35;
	phases "BN";
	from R5-35-00-1_node_285;
	to R5-35-00-1_node_276;
	current_limit 3000.0;
	status CLOSED;
}

object fuse:1313 {
	name R5-35-00-1_fuse_36;
	phases "ABCN";
	from R5-35-00-1_node_291;
	to R5-35-00-1_node_294;
	current_limit 3000.0;
	status CLOSED;
}


object line_configuration:970 {
	conductor_A underground_line_conductor:45;
	conductor_B underground_line_conductor:45;
	conductor_C underground_line_conductor:45;
	conductor_N underground_line_conductor:45;
	spacing line_spacing:969;
}

object line_configuration:971 {
	conductor_A underground_line_conductor:44;
	conductor_B underground_line_conductor:44;
	conductor_C underground_line_conductor:44;
	conductor_N underground_line_conductor:44;
	spacing line_spacing:969;
}

object line_configuration:973 {
	conductor_A underground_line_conductor:42;
	conductor_N underground_line_conductor:42;
	spacing line_spacing:972;
}

object line_configuration:974 {
	conductor_A underground_line_conductor:43;
	conductor_N underground_line_conductor:43;
	spacing line_spacing:972;
}

object line_configuration:976 {
	conductor_A overhead_line_conductor:36;
	conductor_B overhead_line_conductor:36;
	conductor_C overhead_line_conductor:36;
	conductor_N overhead_line_conductor:36;
	spacing line_spacing:975;
}

object line_configuration:978 {
	conductor_B underground_line_conductor:43;
	conductor_N underground_line_conductor:43;
	spacing line_spacing:977;
}

object line_configuration:979 {
	conductor_A underground_line_conductor:44;
	conductor_N underground_line_conductor:44;
	spacing line_spacing:972;
}

object line_configuration:980 {
	conductor_A underground_line_conductor:43;
	conductor_B underground_line_conductor:43;
	conductor_C underground_line_conductor:43;
	conductor_N underground_line_conductor:43;
	spacing line_spacing:969;
}

object line_configuration:982 {
	conductor_C underground_line_conductor:44;
	conductor_N underground_line_conductor:44;
	spacing line_spacing:981;
}

object line_configuration:983 {
	conductor_C underground_line_conductor:45;
	conductor_N underground_line_conductor:45;
	spacing line_spacing:981;
}

object line_configuration:984 {
	conductor_C underground_line_conductor:43;
	conductor_N underground_line_conductor:43;
	spacing line_spacing:981;
}

object line_configuration:985 {
	conductor_B underground_line_conductor:45;
	conductor_N underground_line_conductor:45;
	spacing line_spacing:977;
}

object line_configuration:986 {
	conductor_B underground_line_conductor:44;
	conductor_N underground_line_conductor:44;
	spacing line_spacing:977;
}

object line_configuration:987 {
	conductor_A underground_line_conductor:45;
	conductor_N underground_line_conductor:45;
	spacing line_spacing:972;
}

object line_configuration:989 {
	conductor_A overhead_line_conductor:36;
	conductor_B overhead_line_conductor:36;
	conductor_C overhead_line_conductor:36;
	conductor_N overhead_line_conductor:36;
	spacing line_spacing:988;
}


object line_spacing:969 {
	distance_AB 12.0 in;
	distance_BC 12.0 in;
	distance_AC 12.0 in;
	distance_AN 360.0 in;
	distance_BN 360.0 in;
	distance_CN 360.0 in;
}

object line_spacing:972 {
	distance_AN 360.0 in;
}

object line_spacing:975 {
	distance_AB 65.90000000004 in;
	distance_BC 65.90000000004 in;
	distance_AC 65.90000000004 in;
	distance_AN 85.59999999996 in;
	distance_BN 85.59999999996 in;
	distance_CN 85.59999999996 in;
}

object line_spacing:977 {
	distance_BN 360.0 in;
}

object line_spacing:981 {
	distance_CN 360.0 in;
}

object line_spacing:988 {
	distance_AB 60.50000000004 in;
	distance_BC 60.50000000004 in;
	distance_AC 60.50000000004 in;
	distance_AN 84.6 in;
	distance_BN 84.6 in;
	distance_CN 84.6 in;
}


object load {
	name R5-35-00-1_load_1;
	parent R5-35-00-1_meter_1;
	phases "ABCN";
	nominal_voltage 19918.584;
	voltage_A 19918.584+0.0j;
	voltage_B -9959.292-17250.000j;
	voltage_C -9959.292+17250.000j;
	constant_power_A 108400.000+29900.000j;
	constant_power_B 108400.000+29900.000j;
	constant_power_C 108400.000+29900.000j;
	load_class "U";
}

object load {
	name R5-35-00-1_load_2;
	parent R5-35-00-1_meter_2;
	phases "ABCN";
	nominal_voltage 19918.584;
	voltage_A 19918.584+0.0j;
	voltage_B -9959.292-17250.000j;
	voltage_C -9959.292+17250.000j;
	constant_power_A 5300.000+3300.000j;
	constant_power_B 5300.000+3300.000j;
	constant_power_C 5300.000+3300.000j;
	load_class "U";
}

object load {
	name R5-35-00-1_load_3;
	parent R5-35-00-1_meter_3;
	phases "ABCN";
	nominal_voltage 19918.584;
	voltage_A 19918.584+0.0j;
	voltage_B -9959.292-17250.000j;
	voltage_C -9959.292+17250.000j;
	constant_power_A 14900.000+9300.000j;
	constant_power_B 14900.000+9300.000j;
	constant_power_C 14900.000+9300.000j;
	load_class "U";
}

object load {
	name R5-35-00-1_load_4;
	parent R5-35-00-1_meter_4;
	phases "ABCN";
	nominal_voltage 19918.584;
	voltage_A 19918.584+0.0j;
	voltage_B -9959.292-17250.000j;
	voltage_C -9959.292+17250.000j;
	constant_power_A 126900.000+78700.000j;
	constant_power_B 126900.000+78700.000j;
	constant_power_C 126900.000+78700.000j;
	load_class "U";
}

object load {
	name R5-35-00-1_load_5;
	parent R5-35-00-1_meter_5;
	phases "ABCN";
	nominal_voltage 19918.584;
	voltage_A 19918.584+0.0j;
	voltage_B -9959.292-17250.000j;
	voltage_C -9959.292+17250.000j;
	constant_power_A 8000.000+5000.000j;
	constant_power_B 8000.000+5000.000j;
	constant_power_C 8000.000+5000.000j;
	load_class "U";
}

object load {
	name R5-35-00-1_load_6;
	parent R5-35-00-1_meter_6;
	phases "ABCN";
	nominal_voltage 19918.584;
	voltage_A 19918.584+0.0j;
	voltage_B -9959.292-17250.000j;
	voltage_C -9959.292+17250.000j;
	constant_power_A 14700.000+9100.000j;
	constant_power_B 14700.000+9100.000j;
	constant_power_C 14700.000+9100.000j;
	load_class "U";
}

object load {
	name R5-35-00-1_load_7;
	parent R5-35-00-1_meter_7;
	phases "ABCN";
	nominal_voltage 19918.584;
	voltage_A 19918.584+0.0j;
	voltage_B -9959.292-17250.000j;
	voltage_C -9959.292+17250.000j;
	constant_power_A 30300.000+18800.000j;
	constant_power_B 30300.000+18800.000j;
	constant_power_C 30300.000+18800.000j;
	load_class "U";
}

object load {
	name R5-35-00-1_load_8;
	parent R5-35-00-1_meter_8;
	phases "ABCN";
	nominal_voltage 19918.584;
	voltage_A 19918.584+0.0j;
	voltage_B -9959.292-17250.000j;
	voltage_C -9959.292+17250.000j;
	constant_power_A 5700.000+3600.000j;
	constant_power_B 5700.000+3600.000j;
	constant_power_C 5700.000+3600.000j;
	load_class "U";
}

object load {
	name R5-35-00-1_load_9;
	parent R5-35-00-1_meter_9;
	phases "ABCN";
	nominal_voltage 19918.584;
	voltage_A 19918.584+0.0j;
	voltage_B -9959.292-17250.000j;
	voltage_C -9959.292+17250.000j;
	constant_power_A 98000.000+60800.000j;
	constant_power_B 98000.000+60800.000j;
	constant_power_C 98000.000+60800.000j;
	load_class "U";
}

object load {
	name R5-35-00-1_load_10;
	parent R5-35-00-1_meter_10;
	phases "ABCN";
	nominal_voltage 19918.584;
	voltage_A 19918.584+0.0j;
	voltage_B -9959.292-17250.000j;
	voltage_C -9959.292+17250.000j;
	constant_power_A 6800.000+4200.000j;
	constant_power_B 6800.000+4200.000j;
	constant_power_C 6800.000+4200.000j;
	load_class "U";
}

object load {
	name R5-35-00-1_load_11;
	parent R5-35-00-1_meter_11;
	phases "ABCN";
	nominal_voltage 19918.584;
	voltage_A 19918.584+0.0j;
	voltage_B -9959.292-17250.000j;
	voltage_C -9959.292+17250.000j;
	constant_power_A 22200.000+13800.000j;
	constant_power_B 22200.000+13800.000j;
	constant_power_C 22200.000+13800.000j;
	load_class "U";
}

object load {
	name R5-35-00-1_load_12;
	parent R5-35-00-1_meter_12;
	phases "ABCN";
	nominal_voltage 19918.584;
	voltage_A 19918.584+0.0j;
	voltage_B -9959.292-17250.000j;
	voltage_C -9959.292+17250.000j;
	constant_power_A 112800.000+69900.000j;
	constant_power_B 112800.000+69900.000j;
	constant_power_C 112800.000+69900.000j;
	load_class "U";
}

object load {
	name R5-35-00-1_load_13;
	parent R5-35-00-1_meter_13;
	phases "ABCN";
	nominal_voltage 19918.584;
	voltage_A 19918.584+0.0j;
	voltage_B -9959.292-17250.000j;
	voltage_C -9959.292+17250.000j;
	constant_power_A 8000.000+5000.000j;
	constant_power_B 8000.000+5000.000j;
	constant_power_C 8000.000+5000.000j;
	load_class "U";
}

object load {
	name R5-35-00-1_load_14;
	parent R5-35-00-1_meter_14;
	phases "ABCN";
	nominal_voltage 19918.584;
	voltage_A 19918.584+0.0j;
	voltage_B -9959.292-17250.000j;
	voltage_C -9959.292+17250.000j;
	constant_power_A 35400.000+21900.000j;
	constant_power_B 35400.000+21900.000j;
	constant_power_C 35400.000+21900.000j;
	load_class "U";
}

object load {
	name R5-35-00-1_load_15;
	parent R5-35-00-1_meter_15;
	phases "ABCN";
	nominal_voltage 19918.584;
	voltage_A 19918.584+0.0j;
	voltage_B -9959.292-17250.000j;
	voltage_C -9959.292+17250.000j;
	constant_power_A 18700.000+11600.000j;
	constant_power_B 18700.000+11600.000j;
	constant_power_C 18700.000+11600.000j;
	load_class "U";
}

object load {
	name R5-35-00-1_load_16;
	parent R5-35-00-1_meter_16;
	phases "ABCN";
	nominal_voltage 19918.584;
	voltage_A 19918.584+0.0j;
	voltage_B -9959.292-17250.000j;
	voltage_C -9959.292+17250.000j;
	constant_power_A 10800.000+6700.000j;
	constant_power_B 10800.000+6700.000j;
	constant_power_C 10800.000+6700.000j;
	load_class "U";
}

object load {
	name R5-35-00-1_load_17;
	parent R5-35-00-1_meter_17;
	phases "ABCN";
	nominal_voltage 19918.584;
	voltage_A 19918.584+0.0j;
	voltage_B -9959.292-17250.000j;
	voltage_C -9959.292+17250.000j;
	constant_power_A 23700.000+14700.000j;
	constant_power_B 23700.000+14700.000j;
	constant_power_C 23700.000+14700.000j;
	load_class "U";
}


object meter:107 {
	name R5-35-00-1_meter_1;
	phases "ABCN";
	nominal_voltage 19918.584;
	voltage_A 19918.584+0.0j;
	voltage_B -9959.292-17250.000j;
	voltage_C -9959.292+17250.000j;
}

object meter:118 {
	name R5-35-00-1_meter_2;
	phases "ABCN";
	nominal_voltage 19918.584;
	voltage_A 19918.584+0.0j;
	voltage_B -9959.292-17250.000j;
	voltage_C -9959.292+17250.000j;
}

object meter:120 {
	name R5-35-00-1_meter_3;
	phases "ABCN";
	nominal_voltage 19918.584;
	voltage_A 19918.584+0.0j;
	voltage_B -9959.292-17250.000j;
	voltage_C -9959.292+17250.000j;
}

object meter:137 {
	name R5-35-00-1_meter_4;
	phases "ABCN";
	nominal_voltage 19918.584;
	voltage_A 19918.584+0.0j;
	voltage_B -9959.292-17250.000j;
	voltage_C -9959.292+17250.000j;
}

object meter:142 {
	name R5-35-00-1_meter_5;
	phases "ABCN";
	nominal_voltage 19918.584;
	voltage_A 19918.584+0.0j;
	voltage_B -9959.292-17250.000j;
	voltage_C -9959.292+17250.000j;
}

object meter:144 {
	name R5-35-00-1_meter_6;
	phases "ABCN";
	nominal_voltage 19918.584;
	voltage_A 19918.584+0.0j;
	voltage_B -9959.292-17250.000j;
	voltage_C -9959.292+17250.000j;
}

object meter:146 {
	name R5-35-00-1_meter_7;
	phases "ABCN";
	nominal_voltage 19918.584;
	voltage_A 19918.584+0.0j;
	voltage_B -9959.292-17250.000j;
	voltage_C -9959.292+17250.000j;
}

object meter:148 {
	name R5-35-00-1_meter_8;
	phases "ABCN";
	nominal_voltage 19918.584;
	voltage_A 19918.584+0.0j;
	voltage_B -9959.292-17250.000j;
	voltage_C -9959.292+17250.000j;
}

object meter:150 {
	name R5-35-00-1_meter_9;
	phases "ABCN";
	nominal_voltage 19918.584;
	voltage_A 19918.584+0.0j;
	voltage_B -9959.292-17250.000j;
	voltage_C -9959.292+17250.000j;
}

object meter:161 {
	name R5-35-00-1_meter_10;
	phases "ABCN";
	nominal_voltage 19918.584;
	voltage_A 19918.584+0.0j;
	voltage_B -9959.292-17250.000j;
	voltage_C -9959.292+17250.000j;
}

object meter:247 {
	name R5-35-00-1_meter_11;
	phases "ABCN";
	nominal_voltage 19918.584;
	voltage_A 19918.584+0.0j;
	voltage_B -9959.292-17250.000j;
	voltage_C -9959.292+17250.000j;
}

object meter:414 {
	name R5-35-00-1_meter_12;
	phases "ABCN";
	nominal_voltage 19918.584;
	voltage_A 19918.584+0.0j;
	voltage_B -9959.292-17250.000j;
	voltage_C -9959.292+17250.000j;
}

object meter:418 {
	name R5-35-00-1_meter_13;
	phases "ABCN";
	nominal_voltage 19918.584;
	voltage_A 19918.584+0.0j;
	voltage_B -9959.292-17250.000j;
	voltage_C -9959.292+17250.000j;
}

object meter:420 {
	name R5-35-00-1_meter_14;
	phases "ABCN";
	nominal_voltage 19918.584;
	voltage_A 19918.584+0.0j;
	voltage_B -9959.292-17250.000j;
	voltage_C -9959.292+17250.000j;
}

object meter:488 {
	name R5-35-00-1_meter_15;
	phases "ABCN";
	nominal_voltage 19918.584;
	voltage_A 19918.584+0.0j;
	voltage_B -9959.292-17250.000j;
	voltage_C -9959.292+17250.000j;
}

object meter:490 {
	name R5-35-00-1_meter_16;
	phases "ABCN";
	nominal_voltage 19918.584;
	voltage_A 19918.584+0.0j;
	voltage_B -9959.292-17250.000j;
	voltage_C -9959.292+17250.000j;
}

object meter:492 {
	name R5-35-00-1_meter_17;
	phases "ABCN";
	nominal_voltage 19918.584;
	voltage_A 19918.584+0.0j;
	voltage_B -9959.292-17250.000j;
	voltage_C -9959.292+17250.000j;
}

// Meter at feeder
object meter:496 {
	name R5-35-00-1_meter_18;
	phases "ABCN";
	nominal_voltage 19918.584;
	voltage_A 19918.584+0.0j;
	voltage_B -9959.292-17250.000j;
	voltage_C -9959.292+17250.000j;
}


object node:497 {
	name R5-35-00-1_node_1;
	phases "ABCN";
	nominal_voltage 19918.584;
	voltage_A 19918.584+0.0j;
	voltage_B -9959.292-17250.000j;
	voltage_C -9959.292+17250.000j;
}

object node:499 {
	name R5-35-00-1_node_2;
	phases "CN";
	nominal_voltage 19918.584;
	voltage_C -9959.292+17250.000j;
}

object node:500 {
	name R5-35-00-1_node_3;
	phases "CN";
	nominal_voltage 19918.584;
	voltage_C -9959.292+17250.000j;
}

object node:501 {
	name R5-35-00-1_node_4;
	phases "CN";
	nominal_voltage 19918.584;
	voltage_C -9959.292+17250.000j;
}

object node:503 {
	name R5-35-00-1_node_5;
	phases "AN";
	nominal_voltage 19918.584;
	voltage_A 19918.584+0.0j;
}

object node:504 {
	name R5-35-00-1_node_6;
	phases "AN";
	nominal_voltage 19918.584;
	voltage_A 19918.584+0.0j;
}

object node:507 {
	name R5-35-00-1_node_7;
	phases "AN";
	nominal_voltage 19918.584;
	voltage_A 19918.584+0.0j;
}

object node:508 {
	name R5-35-00-1_node_8;
	phases "ABCN";
	nominal_voltage 19918.584;
	voltage_A 19918.584+0.0j;
	voltage_B -9959.292-17250.000j;
	voltage_C -9959.292+17250.000j;
}

object node:511 {
	name R5-35-00-1_node_9;
	phases "AN";
	nominal_voltage 19918.584;
	voltage_A 19918.584+0.0j;
}

object node:513 {
	name R5-35-00-1_node_10;
	phases "BN";
	nominal_voltage 19918.584;
	voltage_B -9959.292-17250.000j;
}

object node:514 {
	name R5-35-00-1_node_11;
	phases "AN";
	nominal_voltage 19918.584;
	voltage_A 19918.584+0.0j;
}

object node:516 {
	name R5-35-00-1_node_12;
	phases "CN";
	nominal_voltage 19918.584;
	voltage_C -9959.292+17250.000j;
}

object node:517 {
	name R5-35-00-1_node_13;
	phases "CN";
	nominal_voltage 19918.584;
	voltage_C -9959.292+17250.000j;
}

object node:518 {
	name R5-35-00-1_node_14;
	phases "CN";
	nominal_voltage 19918.584;
	voltage_C -9959.292+17250.000j;
}

object node:519 {
	name R5-35-00-1_node_15;
	phases "CN";
	nominal_voltage 19918.584;
	voltage_C -9959.292+17250.000j;
}

object node:520 {
	name R5-35-00-1_node_16;
	phases "CN";
	nominal_voltage 19918.584;
	voltage_C -9959.292+17250.000j;
}

object node:521 {
	name R5-35-00-1_node_17;
	phases "BN";
	nominal_voltage 19918.584;
	voltage_B -9959.292-17250.000j;
}

object node:523 {
	name R5-35-00-1_node_18;
	phases "BN";
	nominal_voltage 19918.584;
	voltage_B -9959.292-17250.000j;
}

object node:526 {
	name R5-35-00-1_node_19;
	phases "BN";
	nominal_voltage 19918.584;
	voltage_B -9959.292-17250.000j;
}

object node:528 {
	name R5-35-00-1_node_20;
	phases "BN";
	nominal_voltage 19918.584;
	voltage_B -9959.292-17250.000j;
}

object node:530 {
	name R5-35-00-1_node_21;
	phases "BN";
	nominal_voltage 19918.584;
	voltage_B -9959.292-17250.000j;
}

object node:531 {
	name R5-35-00-1_node_22;
	phases "CN";
	nominal_voltage 19918.584;
	voltage_C -9959.292+17250.000j;
}

object node:532 {
	name R5-35-00-1_node_23;
	phases "AN";
	nominal_voltage 19918.584;
	voltage_A 19918.584+0.0j;
}

object node:535 {
	name R5-35-00-1_node_24;
	phases "AN";
	nominal_voltage 19918.584;
	voltage_A 19918.584+0.0j;
}

object node:536 {
	name R5-35-00-1_node_25;
	phases "AN";
	nominal_voltage 19918.584;
	voltage_A 19918.584+0.0j;
}

object node:539 {
	name R5-35-00-1_node_26;
	phases "AN";
	nominal_voltage 19918.584;
	voltage_A 19918.584+0.0j;
}

object node:541 {
	name R5-35-00-1_node_27;
	phases "AN";
	nominal_voltage 19918.584;
	voltage_A 19918.584+0.0j;
}

object node:543 {
	name R5-35-00-1_node_28;
	phases "AN";
	nominal_voltage 19918.584;
	voltage_A 19918.584+0.0j;
}

object node:544 {
	name R5-35-00-1_node_29;
	phases "AN";
	nominal_voltage 19918.584;
	voltage_A 19918.584+0.0j;
}

object node:547 {
	name R5-35-00-1_node_30;
	phases "AN";
	nominal_voltage 19918.584;
	voltage_A 19918.584+0.0j;
}

object node:548 {
	name R5-35-00-1_node_31;
	phases "AN";
	nominal_voltage 19918.584;
	voltage_A 19918.584+0.0j;
}

object node:550 {
	name R5-35-00-1_node_32;
	phases "AN";
	nominal_voltage 19918.584;
	voltage_A 19918.584+0.0j;
}

object node:552 {
	name R5-35-00-1_node_33;
	phases "CN";
	nominal_voltage 19918.584;
	voltage_C -9959.292+17250.000j;
}

object node:553 {
	name R5-35-00-1_node_34;
	phases "AN";
	nominal_voltage 19918.584;
	voltage_A 19918.584+0.0j;
}

object node:555 {
	name R5-35-00-1_node_35;
	phases "BN";
	nominal_voltage 19918.584;
	voltage_B -9959.292-17250.000j;
}

object node:558 {
	name R5-35-00-1_node_36;
	phases "AN";
	nominal_voltage 19918.584;
	voltage_A 19918.584+0.0j;
}

object node:559 {
	name R5-35-00-1_node_37;
	phases "ABCN";
	nominal_voltage 19918.584;
	voltage_A 19918.584+0.0j;
	voltage_B -9959.292-17250.000j;
	voltage_C -9959.292+17250.000j;
}

object node:561 {
	name R5-35-00-1_node_38;
	phases "BN";
	nominal_voltage 19918.584;
	voltage_B -9959.292-17250.000j;
}

object node:562 {
	name R5-35-00-1_node_39;
	phases "CN";
	nominal_voltage 19918.584;
	voltage_C -9959.292+17250.000j;
}

object node:564 {
	name R5-35-00-1_node_40;
	phases "BN";
	nominal_voltage 19918.584;
	voltage_B -9959.292-17250.000j;
}

object node:566 {
	name R5-35-00-1_node_41;
	phases "BN";
	nominal_voltage 19918.584;
	voltage_B -9959.292-17250.000j;
}

object node:567 {
	name R5-35-00-1_node_42;
	phases "BN";
	nominal_voltage 19918.584;
	voltage_B -9959.292-17250.000j;
}

object node:570 {
	name R5-35-00-1_node_43;
	phases "BN";
	nominal_voltage 19918.584;
	voltage_B -9959.292-17250.000j;
}

object node:571 {
	name R5-35-00-1_node_44;
	phases "CN";
	nominal_voltage 19918.584;
	voltage_C -9959.292+17250.000j;
}

object node:572 {
	name R5-35-00-1_node_45;
	phases "CN";
	nominal_voltage 19918.584;
	voltage_C -9959.292+17250.000j;
}

object node:573 {
	name R5-35-00-1_node_46;
	phases "CN";
	nominal_voltage 19918.584;
	voltage_C -9959.292+17250.000j;
}

object node:574 {
	name R5-35-00-1_node_47;
	phases "BN";
	nominal_voltage 19918.584;
	voltage_B -9959.292-17250.000j;
}

object node:577 {
	name R5-35-00-1_node_48;
	phases "BN";
	nominal_voltage 19918.584;
	voltage_B -9959.292-17250.000j;
}

object node:578 {
	name R5-35-00-1_node_49;
	phases "CN";
	nominal_voltage 19918.584;
	voltage_C -9959.292+17250.000j;
}

object node:579 {
	name R5-35-00-1_node_50;
	phases "CN";
	nominal_voltage 19918.584;
	voltage_C -9959.292+17250.000j;
}

object node:580 {
	name R5-35-00-1_node_51;
	phases "CN";
	nominal_voltage 19918.584;
	voltage_C -9959.292+17250.000j;
}

object node:581 {
	name R5-35-00-1_node_52;
	phases "ABCN";
	nominal_voltage 19918.584;
	voltage_A 19918.584+0.0j;
	voltage_B -9959.292-17250.000j;
	voltage_C -9959.292+17250.000j;
}

object node:583 {
	name R5-35-00-1_node_53;
	phases "CN";
	nominal_voltage 19918.584;
	voltage_C -9959.292+17250.000j;
}

object node:584 {
	name R5-35-00-1_node_54;
	phases "CN";
	nominal_voltage 19918.584;
	voltage_C -9959.292+17250.000j;
}

object node:585 {
	name R5-35-00-1_node_55;
	phases "CN";
	nominal_voltage 19918.584;
	voltage_C -9959.292+17250.000j;
}

object node:586 {
	name R5-35-00-1_node_56;
	phases "CN";
	nominal_voltage 19918.584;
	voltage_C -9959.292+17250.000j;
}

object node:587 {
	name R5-35-00-1_node_57;
	phases "CN";
	nominal_voltage 19918.584;
	voltage_C -9959.292+17250.000j;
}

object node:588 {
	name R5-35-00-1_node_58;
	phases "CN";
	nominal_voltage 19918.584;
	voltage_C -9959.292+17250.000j;
}

object node:589 {
	name R5-35-00-1_node_59;
	phases "CN";
	nominal_voltage 19918.584;
	voltage_C -9959.292+17250.000j;
}

object node:590 {
	name R5-35-00-1_node_60;
	phases "CN";
	nominal_voltage 19918.584;
	voltage_C -9959.292+17250.000j;
}

object node:591 {
	name R5-35-00-1_node_61;
	phases "BN";
	nominal_voltage 19918.584;
	voltage_B -9959.292-17250.000j;
}

object node:593 {
	name R5-35-00-1_node_62;
	phases "BN";
	nominal_voltage 19918.584;
	voltage_B -9959.292-17250.000j;
}

object node:595 {
	name R5-35-00-1_node_63;
	phases "BN";
	nominal_voltage 19918.584;
	voltage_B -9959.292-17250.000j;
}

object node:598 {
	name R5-35-00-1_node_64;
	phases "BN";
	nominal_voltage 19918.584;
	voltage_B -9959.292-17250.000j;
}

object node:600 {
	name R5-35-00-1_node_65;
	phases "BN";
	nominal_voltage 19918.584;
	voltage_B -9959.292-17250.000j;
}

object node:601 {
	name R5-35-00-1_node_66;
	phases "AN";
	nominal_voltage 19918.584;
	voltage_A 19918.584+0.0j;
}

object node:604 {
	name R5-35-00-1_node_67;
	phases "AN";
	nominal_voltage 19918.584;
	voltage_A 19918.584+0.0j;
}

object node:606 {
	name R5-35-00-1_node_68;
	phases "AN";
	nominal_voltage 19918.584;
	voltage_A 19918.584+0.0j;
}

object node:608 {
	name R5-35-00-1_node_69;
	phases "AN";
	nominal_voltage 19918.584;
	voltage_A 19918.584+0.0j;
}

object node:610 {
	name R5-35-00-1_node_70;
	phases "BN";
	nominal_voltage 19918.584;
	voltage_B -9959.292-17250.000j;
}

object node:612 {
	name R5-35-00-1_node_71;
	phases "BN";
	nominal_voltage 19918.584;
	voltage_B -9959.292-17250.000j;
}

object node:614 {
	name R5-35-00-1_node_72;
	phases "AN";
	nominal_voltage 19918.584;
	voltage_A 19918.584+0.0j;
}

object node:615 {
	name R5-35-00-1_node_73;
	phases "AN";
	nominal_voltage 19918.584;
	voltage_A 19918.584+0.0j;
}

object node:618 {
	name R5-35-00-1_node_74;
	phases "AN";
	nominal_voltage 19918.584;
	voltage_A 19918.584+0.0j;
}

object node:619 {
	name R5-35-00-1_node_75;
	phases "CN";
	nominal_voltage 19918.584;
	voltage_C -9959.292+17250.000j;
}

object node:620 {
	name R5-35-00-1_node_76;
	phases "CN";
	nominal_voltage 19918.584;
	voltage_C -9959.292+17250.000j;
}

object node:621 {
	name R5-35-00-1_node_77;
	phases "CN";
	nominal_voltage 19918.584;
	voltage_C -9959.292+17250.000j;
}

object node:622 {
	name R5-35-00-1_node_78;
	phases "AN";
	nominal_voltage 19918.584;
	voltage_A 19918.584+0.0j;
}

object node:625 {
	name R5-35-00-1_node_79;
	phases "AN";
	nominal_voltage 19918.584;
	voltage_A 19918.584+0.0j;
}

object node:627 {
	name R5-35-00-1_node_80;
	phases "BN";
	nominal_voltage 19918.584;
	voltage_B -9959.292-17250.000j;
}

object node:628 {
	name R5-35-00-1_node_81;
	phases "BN";
	nominal_voltage 19918.584;
	voltage_B -9959.292-17250.000j;
}

object node:630 {
	name R5-35-00-1_node_82;
	phases "CN";
	nominal_voltage 19918.584;
	voltage_C -9959.292+17250.000j;
}

object node:631 {
	name R5-35-00-1_node_83;
	phases "AN";
	nominal_voltage 19918.584;