//This file tests the operation of multiple cooling controllers 
//in ramp mode in an inelastic market with a matching period
//Since the averages and standard deviations in the controller
//are not published properties, the only way to check if these
//values are correct is to check whether the calculated bidding
//prices are correct (this calculation uses these values)

#set tmp=../test_markets_controller_cooling_inelastic_double
#setenv GRIDLABD=../../../core
#set suppress_repeat_messages=1;

#define stylesheet=http://gridlab-d.svn.sourceforge.net/viewvc/gridlab-d/trunk/core/gridlabd-2_0

module market;
module tape;
module assert;
module climate;
module powerflow;
module residential {
	implicit_enduses NONE;
}

clock {
	timezone PST+8PDT;
	starttime '2001-06-25 14:00:00';
	stoptime '2001-06-25 16:00:00';
}

schedule fixed_prices {
	0-14 14 * * * 100;
	15-29 14 * * * 10;
	30-44 14 * * * 25;
	45-59 14 * * * 112;
	0-14 15 * * * 49.5;
	15-29 15 * * * 49.8;
	30-44 15 * * * 50.2;
	45-59 15 * * * 77;
	* 16 * * * 82;
}

schedule controller_bids {
	0-14 14 * * * 100;
	15-29 14 * * * 55;
	30-44 14 * * * 19.2211;
	45-59 14 * * * 115.501;
	0-14 15 * * * 99.7825;
	15-29 15 * * * 0;
	30-44 15 * * * 50.2355;
	45-59 15 * * * 76.5139;
	* 16 * * * 82.1781;
}

schedule cooling_setpoints {
	0-14 14 * * * 70;
	15-29 14 * * * 70;
	30-44 14 * * * 72.5;
	45-59 14 * * * 72.5;
	0-14 15 * * * 70;
	15-29 15 * * * 72.5;
	30-44 15 * * * 72.5;
	45-59 15 * * * 72.5;
	* 16 * * * 72.5;
}

schedule clearing_quantities {
	0-14 14 * * * 0;
	15-29 14 * * * 0.00873979;
	30-44 14 * * * 0.00873979;
	45-59 14 * * * 0;
	0-14 15 * * * 0.00873979;
	15-29 15 * * * 0.00873979;
	30-44 15 * * * 0;
	45-59 15 * * * 0;
	* 16 * * * 0;
}

object climate {
	name "Yakima WA";
	tmyfile "../WA-Yakima.tmy2";
}

class auction {
	double current_price_mean_30min;
	double current_price_stdev_30min;
}

object auction {
	name Market_1;
	unit MW;
	period 900;
	verbose TRUE;
	special_mode BUYERS_ONLY;
	fixed_price fixed_prices*1;
	warmup 0;
	init_price 100;
	init_stdev 0;
	object multi_recorder {
		property cool_control:bid_price,current_market.clearing_price,current_market.clearing_quantity,current_market.clearing_type,current_market.marginal_quantity,current_price_mean_30min,current_price_stdev_30min;
		file "test_markets_controller_cooling_inelastic_double_output.csv";
		interval 900;
		limit 168;
	};
	//=IF(OR(C10=D10,I10=0),B10,IF(C10>D10,B10+(C10-D10)*ABS(E10)/(G10*I10),B10+(C10-D10)*ABS(F10)/(H10*I10)))
	object multi_recorder {
		property cool_control:base_setpoint,current_market.clearing_price,current_price_mean_30min,cool_control:range_high,cool_control:range_low,cool_control:ramp_high,cool_control:ramp_low,current_price_stdev_30min,house1:cooling_setpoint;
		file "test_markets_controller_cooling_inelastic_double_calculate_setpoint.csv";
		interval 900;
		limit 4320;
	};
	//put the following into cell K10 into the calculate_bid_price file and drag down to check if bid prices are calculated correctly:
	//=IF(OR(C10<D10+H10,C10>D10+I10),IF(C10<D10+H10,0000,IF(C10>D10+I10,9999,INVALID)),IF(C10<D10,IF(H10=0,0,B10+((C10-D10)*E10*G10)/ABS(H10)),IF(I10=0,0,B10+((C10-D10)*F10*G10)/ABS(I10))))
	object multi_recorder {
		property current_price_mean_30min,house1:air_temperature,cool_control:base_setpoint,cool_control:ramp_low,cool_control:ramp_high,current_price_stdev_30min,cool_control:range_low,cool_control:range_high,cool_control:bid_price;
		file "test_markets_controller_cooling_inelastic_double_calculate_bid_price.csv";
		interval 90;
		limit 4320;
	};
	//recorder to fix the timestep so values will stay constant
	object recorder {
		interval 1;
		property period;
	};
	object double_assert {
		value clearing_quantities*1;
		target "current_market.clearing_quantity";
		within 1e-6;
	};
}

object triplex_meter {
	phases AS;
	nominal_voltage 120;
	object house {
		name house1;
		weather "Yakima WA";
		cooling_setpoint 70;
		air_temperature 72;
		// object multi_recorder {
			// property outdoor_temperature;
			// file "weather_data.csv";
			// interval 2 h;
			// limit 4380;
		// };
		object double_assert {
				value cooling_setpoints*1;
				target "cooling_setpoint";
				within 1e-3;
		};
		object controller {
			name cool_control;			
			market Market_1;
			bid_mode ON;			
			period 900;
			average_target current_price_mean_30min;
			standard_deviation_target current_price_stdev_30min;		
			control_mode RAMP;
			target air_temperature;
			setpoint cooling_setpoint;
			demand cooling_demand;
			total total_load;
			load hvac_load;
			//slider_setting 0; //set to 0 or ramps will be overwritten
			ramp_low 2;
			ramp_high 2;
			range_low 0;
			range_high 5;
			// object multi_recorder {
				// property simple_mode,period,setpoint,target,base_setpoint,control_mode,resolve_mode,demand,load,total,range_low,range_high,ramp_low,ramp_high,bid_mode,bid_price,bid_quantity,set_temp,house1:power_state,house1:cooling_demand,house1:cooling_setpoint,house1:air_temperature,house1:system_mode,average_target,standard_deviation_target,house1:hvac_load,house1:outdoor_temperature;
				// file "check_defaults_output1.csv";
				// interval 90;
				// limit 4320;
			// };
			object double_assert {
				value controller_bids*1;
				target "bid_price";
				within 1e-3;
			};
		};
	};
	object house {
		name house2;
		weather "Yakima WA";
		cooling_setpoint 70;
		air_temperature 72;
		object double_assert {
				value cooling_setpoints*1;
				target "cooling_setpoint";
				within 1e-3;
		};
		object controller {
			name cool_control2;			
			market Market_1;
			bid_mode ON;			
			period 900;
			average_target current_price_mean_30min;
			standard_deviation_target current_price_stdev_30min;		
			control_mode RAMP;
			target air_temperature;
			setpoint cooling_setpoint;
			demand cooling_demand;
			total total_load;
			load hvac_load;
			//slider_setting 0; //set to 0 or ramps will be overwritten
			ramp_low 2;
			ramp_high 2;
			range_low 0;
			range_high 5;
			// object multi_recorder {
				// property simple_mode,period,setpoint,target,base_setpoint,control_mode,resolve_mode,demand,load,total,range_low,range_high,ramp_low,ramp_high,bid_mode,bid_price,bid_quantity,set_temp,house2:power_state,house2:cooling_demand,house2:cooling_setpoint,house2:air_temperature,house2:system_mode,average_target,standard_deviation_target,house2:hvac_load,house2:outdoor_temperature;
				// file "check_defaults_output2.csv";
				// interval 90;
				// limit 4320;
			// };
			object double_assert {
				value controller_bids*1;
				target "bid_price";
				within 1e-3;
			};
		};
	};
}
