//This file tests the operation of a heating controller 
//in double ramp mode with deadband resolution 
//in a responsive market and a matching period
//Since the averages and standard deviations in the controller
//are not published properties, the only way to check if these
//values are correct is to check whether the calculated bidding
//prices are correct (this calculation uses these values)

#set tmp=../test_markets_controller_heating_deadband_matching_period
#setenv GRIDLABD=../../../core

#define stylesheet=http://gridlab-d.svn.sourceforge.net/viewvc/gridlab-d/trunk/core/gridlabd-2_0

module market;
module tape;
module assert;
module powerflow;
module residential {
	implicit_enduses NONE;
	default_outdoor_temperature 25;
}

clock {
	timezone PST+8PDT;
	starttime '2001-06-25 14:00:00';
	stoptime '2001-06-25 16:00:00';
}

schedule seller_prices {
	0-14 14 * * * 100;
	15-29 14 * * * 10;
	30-44 14 * * * 25;
	45-59 14 * * * 112;
	0-14 15 * * * 49.5;
	15-29 15 * * * 49.8;
	30-44 15 * * * 50.2;
	45-59 15 * * * 77;
	* 16 * * * 82;
}

schedule controller_bids {
	0-14 14 * * * 100;
	15-29 14 * * * 52.6205;
	30-44 14 * * * 13.79913;
	45-59 14 * * * 103.7402;
	0-14 15 * * * 110.4213;
	15-29 15 * * * 0;
	30-44 15 * * * 50.20144;
	45-59 15 * * * 69.00181;
	* 16 * * * 81.0818;
}

schedule heating_setpoints {
	0-14 14 * * * 65;
	15-29 14 * * * 66.5;
	30-44 14 * * * 63;
	45-59 14 * * * 63;
	0-14 15 * * * 66.5;
	15-29 15 * * * 63;
	30-44 15 * * * 63;
	45-59 15 * * * 63;
	* 16 * * * 63;
}

class auction {
	double current_price_mean_30min;
	double current_price_stdev_30min;
}

object auction {
	name Market_1;
	type DOUBLE;
	unit kW;
	period 900;
	verbose TRUE;
	special_mode BUYERS_ONLY;
	fixed_price seller_prices*1;
	warmup 0;
	init_price 100;
	init_stdev 10;
	object multi_recorder {
		//property hvac_control:bid_price,current_market.clearing_price,current_market.clearing_quantity,current_market.clearing_type,current_market.marginal_quantity,current_price_mean_30min,current_price_stdev_30min;
		property house1:air_temperature,house1:heating_setpoint,house1:cooling_setpoint,hvac_control:bid_price,current_market.clearing_price,current_price_stdev_30min,house1:system_mode,hvac_control:bid_quantity,current_market.clearing_quantity;
		file "test_markets_controller_heating_deadband_matching_period_output.csv";
		interval 90;
		limit 168;
	};
	//copy and paste the following into an empty column,then drag down to apply to entire column:
	//heating_range_high(put into column R): =IF(ABS(J10)+ABS(M10)+N10>F10-G10,((G10+M10)+(F10+J10))/2-N10/2-G10,J10)
	//intermediate(put into column Q): =IF(H10=0,G10,IF(C10>D10,G10+(C10-D10)*ABS(J10)/(I10*H10),G10+(C10-D10)*ABS(L10)/(K10*H10)))
	//heating_setpoint: =IF(Q10>G10+R10,G10+R10,IF(Q10<G10+K10,G10+K10,Q10))
	object multi_recorder {
		//property hvac_control:bid_price,current_market.clearing_price,current_price_mean_30min,house1:air_temperature,hvac_control:cooling_base_setpoint,hvac_control:heating_base_setpoint,current_price_stdev_30min,hvac_control:cooling_ramp_high,hvac_control:cooling_range_high,hvac_control:cooling_ramp_low,hvac_control:cooling_range_low,hvac_control:heating_range_high,house1:thermostat_deadband,house1:cooling_setpoint;
		property hvac_control:bid_price,current_market.clearing_price,current_price_mean_30min,house1:air_temperature,hvac_control:cooling_base_setpoint,hvac_control:heating_base_setpoint,current_price_stdev_30min,hvac_control:heating_ramp_high,hvac_control:heating_range_high,hvac_control:heating_ramp_low,hvac_control:heating_range_low,hvac_control:cooling_range_low,house1:thermostat_deadband,house1:heating_setpoint;
		file "calculate_heating_setpoint.csv";
		interval 900;
		limit 168;
	};
	//put the following into cell K10 into the calculate_bid_price file and drag down to check if bid prices are calculated correctly:
	//=IF(OR(C10<D10+H10,C10>D10+O10),IF(C10<D10+H10,9999,IF(C10>D10+O10,0,INVALID)),IF(C10<D10,IF(H10=0,0,B10+((C10-D10)*E10*G10)/ABS(H10)),IF(I10=0,0,B10+((C10-D10)*F10*G10)/ABS(I10))))
	//heating_range_high(put into column O): =IF(ABS(I10)+ABS(K10)+L10>J10-D10,((D10+I10)+(J10+K10))/2-L10/2-D10,I10)
	object multi_recorder {
		property current_price_mean_30min,house1:air_temperature,hvac_control:heating_base_setpoint,hvac_control:heating_ramp_low,hvac_control:heating_ramp_high,current_price_stdev_30min,hvac_control:heating_range_low,hvac_control:heating_range_high,hvac_control:cooling_base_setpoint,hvac_control:cooling_range_low,house1:thermostat_deadband,hvac_control:bid_price;
		file "test_markets_controller_heating_deadband_matching_period_calculate_bid_price.csv";
		interval 900;
		limit 4320;
	};
	//recorder to fix the timestep so values will stay constant
	object recorder {
		interval 1;
		property period;
	};
}

object triplex_meter {
	phases AS;
	nominal_voltage 120;
	object house {
		name house1;
		cooling_setpoint 70;
		heating_setpoint 65;
		air_temperature 65;
		// object multi_recorder {
			// property outdoor_temperature;
			// file "weather_data.csv";
			// interval 2 h;
			// limit 4380;
		// };
		object controller {
			name hvac_control;
			market Market_1;
			bid_mode ON;
			control_mode DOUBLE_RAMP;
			resolve_mode DEADBAND;
			// slider_setting_heat 1;
			// slider_setting_cool 1;
			heating_base_setpoint 65;
			cooling_base_setpoint 70;
			period 900;
			average_target current_price_mean_30min;
			standard_deviation_target current_price_stdev_30min;
			target air_temperature;
			heating_setpoint heating_setpoint;
			heating_demand heating_demand;
			cooling_setpoint cooling_setpoint;
			cooling_demand cooling_demand;
			deadband thermostat_deadband;
			total total_load;
			load hvac_load;
			heating_range_high 4;
			heating_range_low -5;
			heating_ramp_high -2;
			heating_ramp_low -2;
			cooling_range_high 5;
			cooling_range_low -4;
			cooling_ramp_high 2;
			cooling_ramp_low 3;
			
			// object multi_recorder {
				// //property heating_base_setpoint,cooling_base_setpoint,simple_mode,period,setpoint,target,base_setpoint,control_mode,resolve_mode,demand,load,total,range_low,range_high,ramp_low,ramp_high,bid_mode,bid_price,bid_quantity,set_temp,house1:power_state,house1:cooling_demand,house1:cooling_setpoint,house1:air_temperature,house1:system_mode,average_target,standard_deviation_target,house1:hvac_load,house1:outdoor_temperature,house1:thermostat_deadband;
				// property heating_base_setpoint,cooling_base_setpoint,house1:heating_setpoint,house1:cooling_setpoint,heating_ramp_low,heating_ramp_high,heating_range_low,heating_range_high,cooling_ramp_low,cooling_ramp_high,cooling_range_low,cooling_range_high;
				// file "check_defaults_output3.csv";
				// interval 900;
				// limit 4320;
			// };
			object double_assert {
				value controller_bids*1;
				target "bid_price";
				within 1e-3;
			};
		};
		object double_assert {
			value heating_setpoints*1;
			target heating_setpoint;
			within 1e-3;
		};
	};
}

class test {
	int64 next_t;
	int64 new_bid_id;
	int64 new_bid_id;
	double bid_period[s];
	int16 count;
	object market;
	enumeration {BUYER=0, SELLER=1} role;
	int32 lastbid_id;
	int64 lastmkt_id;
	double price;		//Added in so price can be specified
	double quantity;	//Added in so quantity can be specified
	public int64 *thismkt_id;
	function auction::submit_bid;
	intrinsic create (object parent)
	{
		return SUCCESS;
	};
	intrinsic init (object parent)
	{
		new_bid_id = -1;
		next_t = 0;
		lastbid_id = -1;
		lastmkt_id = -1;
		if (market==NULL)			throw "market is not defined";
		thismkt_id = (int64*)gl_get_addr(market,"market_id");
		if (thismkt_id==NULL)
			throw "market does not define market_id";
		return SUCCESS;
	};
	intrinsic sync (TIMESTAMP t0, TIMESTAMP t1)
	{
		if (t1==next_t || next_t==0)
		{
			next_t=t1+bid_period;
			lastbid_id = (int32)submit_bid(market,my,role==BUYER?-quantity:quantity,price,*thismkt_id!=lastmkt_id?new_bid_id:lastbid_id);
			count--;
			lastmkt_id = *thismkt_id;
		}
		if (count>0)
			return next_t;
		else
			return TS_NEVER;
	};
}