//This file tests the operation of a heating controller 
//in ramp mode in an inelastic market with a matching period
//Since the averages and standard deviations in the controller
//are not published properties, the only way to check if these
//values are correct is to check whether the calculated bidding
//prices are correct (this calculation uses these values)

#set tmp=../test_markets_controller_heating_inelastic_matching_period
#setenv GRIDLABD=../../../core

#define stylesheet=http://gridlab-d.svn.sourceforge.net/viewvc/gridlab-d/trunk/core/gridlabd-2_0

#set minimum_timestep=1

module market;
module tape;
module assert;
module climate;
module powerflow;
module residential {
	implicit_enduses NONE;
	default_outdoor_temperature 0;
}

clock {
	timezone PST+8PDT;
	starttime '2001-01-06 04:00:00';
	stoptime '2001-01-06 04:08:00';
}

schedule fixed_prices {
	0 4 * * * 100;
	1 4 * * * 10;
	2 4 * * * 25;
	3 4 * * * 112;
	4 4 * * * 49.5;
	5 4 * * * 49.8;
	6 4 * * * 50.2;
	7 4 * * * 77;
	8-59 4 * * * 82;
}

schedule controller_bids {
	0 4 * * * 100;
	1 4 * * * 55;
	2 4 * * * 27.4903;
	3 4 * * * 123.71716;
	4 4 * * * 118.74375;
	5 4 * * * 49.825488;
	6 4 * * * 50.226064;
	7 4 * * * 78.2864;
	8 4 * * * 82.165;
}

object climate {
	name "Yakima WA";
	tmyfile "../WA-Yakima.tmy2";
}

class auction {
	double current_price_mean_2min;
	double current_price_stdev_2min;
}

object auction {
	name Market_1;
	type DOUBLE;
	unit MW;
	period 60;
	verbose TRUE;
	special_mode SELLERS_ONLY;
	fixed_price fixed_prices*1;
	warmup 0;
	init_price 100;
	init_stdev 0;
	object multi_recorder {
		property heat_control:bid_price,current_market.clearing_price,current_market.clearing_quantity,current_market.clearing_type,current_market.marginal_quantity,current_price_mean_2min,current_price_stdev_2min,house1:air_temperature,house1:system_mode,house1:heating_setpoint;
		file "test_markets_controller_heating_inelastic_matching_period_output.csv";
		interval 60;
		limit 168;
	};
	//put the following into cell K10 into the calculate_bid_price file and drag down to check if bid prices are calculated correctly:
	//=IF(OR(C10<D10+H10,C10>D10+I10),IF(C10<D10+H10,9999,IF(C10>D10+I10,0,INVALID)),IF(C10<D10,IF(H10=0,0,B10+((C10-D10)*E10*G10)/ABS(H10)),IF(I10=0,0,B10+((C10-D10)*F10*G10)/ABS(I10))))
	object multi_recorder {
		property current_price_mean_2min,house1:air_temperature,heat_control:base_setpoint,heat_control:ramp_low,heat_control:ramp_high,current_price_stdev_2min,heat_control:range_low,heat_control:range_high,heat_control:bid_price;
		file "controller_heating_inelastic_matching_period_calculate_bid_price.csv";
		interval 60;
		limit 4320;
	};
	//recorder to fix the timestep so values will stay constant
	object recorder {
		interval 1;
		property period;
	};
}

object triplex_meter {
	phases AS;
	nominal_voltage 120;
	object house {
		name house1;
		weather "Yakima WA";
		air_temperature 62;
		heating_setpoint 65;
		object controller {
			name heat_control;
			simple_mode HOUSE_HEAT;
			market Market_1;
			bid_mode ON;
			slider_setting 1;
			period 60;
			average_target current_price_mean_2min;
			standard_deviation_target current_price_stdev_2min;
			// setpoint heating_setpoint;
			// target air_temperature;
			// base_setpoint 62;
			// control_mode RAMP;
			// demand heating_demand;
			// load hvac_load;
			// total total_load;
			object multi_recorder {
				property simple_mode,period,setpoint,target,base_setpoint,control_mode,resolve_mode,demand,load,total,range_low,range_high,ramp_low,ramp_high,bid_mode,bid_price,bid_quantity,set_temp,house1:power_state,house1:heating_demand,house1:heating_setpoint,house1:air_temperature,house1:system_mode,average_target,standard_deviation_target,house1:hvac_load,house1:outdoor_temperature;
				file "check_defaults_output2.csv";
				interval 60;
				limit 4320;
			};
			object double_assert {
				target "bid_price";
				value controller_bids*1;
				within 1e-3;
			};
		};
	};
}

class test {
	int64 next_t;
	int64 new_bid_id;
	int64 new_bid_id;
	double bid_period[s];
	int16 count;
	object market;
	enumeration {BUYER=0, SELLER=1} role;
	int32 lastbid_id;
	int64 lastmkt_id;
	double price;		//Added in so price can be specified
	double quantity;	//Added in so quantity can be specified
	public int64 *thismkt_id;
	function auction::submit_bid;
	intrinsic create (object parent)
	{
		return SUCCESS;
	};
	intrinsic init (object parent)
	{
		new_bid_id = -1;
		next_t = 0;
		lastbid_id = -1;
		lastmkt_id = -1;
		if (market==NULL)			throw "market is not defined";
		thismkt_id = (int64*)gl_get_addr(market,"market_id");
		if (thismkt_id==NULL)
			throw "market does not define market_id";
		return SUCCESS;
	};
	intrinsic sync (TIMESTAMP t0, TIMESTAMP t1)
	{
		if (t1==next_t || next_t==0)
		{
			next_t=t1+bid_period;
			lastbid_id = (int32)submit_bid(market,my,role==BUYER?-quantity:quantity,price,*thismkt_id!=lastmkt_id?new_bid_id:lastbid_id);
			count--;
			lastmkt_id = *thismkt_id;
		}
		if (count>0)
			return next_t;
		else
			return TS_NEVER;
	};
}