// $Id: IEEE_13_fault_test.glm 4738 2014-07-03 00:55:39Z dchassin $
//	Copyright (C) 2009 Battelle Memorial Institute

#set iteration_limit=100000;

module powerflow{
	solver_method NR;
}
module assert;
module tape;
module reliability{
	maximum_event_length 1800;
	report_event_log TRUE;
}

clock {
	timezone PST+8PDT;
	starttime '2001-01-01 00:00:00';
	stoptime '2001-01-13 00:00:22';
}

//setup reliability
object fault_check {				//Fault check object - required to make powerflow properly handle faults
	name test_fault;
	check_mode ONCHANGE;			//Fault check mode - should be in ONCHANGE - reliability will change it
	eventgen_object Node_650_SLG_A;		//Link to eventgen object - used to handle "unscheduled" events - fuses and switch openings
	output_filename testout.txt;	//"unsupported node" dump file
};

object metrics {
	name testmetrics;
	report_file testmetrics.txt;						//Name of the output file
	module_metrics_object pwrmetrics;					//Module-specific "metrics" object - a powerflow metrics object is specified here
	metrics_of_interest "SAIFI,SAIDI,CAIDI,ASAI,MAIFI";	//Metrics to output into the report file
	customer_group "groupid=METERTEST";					//Search criteria for determining "customers" of the system - similar to collectors - this group is both three-phase and triplex meters
	//customer_group "class=meter";						//"Customers" are only 3-phase meters on the system
	//customer_group "class=triplex_meter";				//"Customers" are only triplex meters on the system
	metric_interval 5 h; 								//Interval to run metrics - (separate from "simulation-long" metrics) - set to 0 for no metric updates (defaults to no interval updates)
	report_interval 5 h;								//Interval to dump metric updates to the output file.
}


//faults for bus 650
object eventgen {				//Event generation object - induces actual faults on the system - this one is a manual object
	name Node_650_SLG_A;
	parent testmetrics;			//Parent it to the reliability metrics object
	fault_type "SLG-A";			//Type of fault for the object to induce
	manual_outages "line_source-650,2001-01-13 0:00:01,2001-01-13 00:00:02";
}

object eventgen {				//Event generation object - induces actual faults on the system - this one is a manual object
	name Node_650_SLG_B;
	parent testmetrics;			//Parent it to the reliability metrics object
	fault_type "SLG-B";			//Type of fault for the object to induce
	manual_outages "line_source-650,2001-01-13 0:00:03,2001-01-13 00:00:04";
}

object eventgen {				//Event generation object - induces actual faults on the system - this one is a manual object
	name Node_650_SLG_C;
	parent testmetrics;			//Parent it to the reliability metrics object
	fault_type "SLG-C";			//Type of fault for the object to induce
	manual_outages "line_source-650,2001-01-13 0:00:05,2001-01-13 00:00:06";
}

object eventgen {				//Event generation object - induces actual faults on the system - this one is a manual object
	name Node_650_DLG_AB;
	parent testmetrics;			//Parent it to the reliability metrics object
	fault_type "DLG-AB";			//Type of fault for the object to induce
	manual_outages "line_source-650,2001-01-13 0:00:07,2001-01-13 00:00:08";
}

object eventgen {				//Event generation object - induces actual faults on the system - this one is a manual object
	name Node_650_DLG_BC;
	parent testmetrics;			//Parent it to the reliability metrics object
	fault_type "DLG-BC";			//Type of fault for the object to induce
	manual_outages "line_source-650,2001-01-13 0:00:09,2001-01-13 00:00:10";
}

object eventgen {				//Event generation object - induces actual faults on the system - this one is a manual object
	name Node_650_DLG_CA;
	parent testmetrics;			//Parent it to the reliability metrics object
	fault_type "DLG-CA";			//Type of fault for the object to induce
	manual_outages "line_source-650,2001-01-13 0:00:11,2001-01-13 00:00:12";
}

object eventgen {				//Event generation object - induces actual faults on the system - this one is a manual object
	name Node_650_LL_AB;
	parent testmetrics;			//Parent it to the reliability metrics object
	fault_type "LL-AB";			//Type of fault for the object to induce
	manual_outages "line_source-650,2001-01-13 0:00:13,2001-01-13 00:00:14";
}

object eventgen {				//Event generation object - induces actual faults on the system - this one is a manual object
	name Node_650_LL_BC;
	parent testmetrics;			//Parent it to the reliability metrics object
	fault_type "LL-BC";			//Type of fault for the object to induce
	manual_outages "line_source-650,2001-01-13 0:00:15,2001-01-13 00:00:16";
}

object eventgen {				//Event generation object - induces actual faults on the system - this one is a manual object
	name Node_650_LL_CA;
	parent testmetrics;			//Parent it to the reliability metrics object
	fault_type "LL-CA";			//Type of fault for the object to induce
	manual_outages "line_source-650,2001-01-13 0:00:17,2001-01-13 00:00:18";
}

object eventgen {				//Event generation object - induces actual faults on the system - this one is a manual object
	name Node_650_TLG;
	parent testmetrics;			//Parent it to the reliability metrics object
	fault_type "TLG";			//Type of fault for the object to induce
	manual_outages "line_source-650,2001-01-13 0:00:19,2001-01-13 00:00:20";
}

object eventgen {				//Event generation object - induces actual faults on the system - this one is a manual object
	name Node_650_TLL;
	parent testmetrics;			//Parent it to the reliability metrics object
	fault_type "TLL";			//Type of fault for the object to induce
	manual_outages "line_source-650,2001-01-13 0:00:21,2001-01-13 00:00:22";
}

//faults for bus 632
object eventgen {				//Event generation object - induces actual faults on the system - this one is a manual object
	name Node_632_SLG_A;
	parent testmetrics;			//Parent it to the reliability metrics object
	fault_type "SLG-A";			//Type of fault for the object to induce
	manual_outages "line_630-632,2001-01-01 0:00:01,2001-01-01 00:00:02";
}

object eventgen {				//Event generation object - induces actual faults on the system - this one is a manual object
	name Node_632_SLG_B;
	parent testmetrics;			//Parent it to the reliability metrics object
	fault_type "SLG-B";			//Type of fault for the object to induce
	manual_outages "line_630-632,2001-01-01 0:00:03,2001-01-01 00:00:04";
}

object eventgen {				//Event generation object - induces actual faults on the system - this one is a manual object
	name Node_632_SLG_C;
	parent testmetrics;			//Parent it to the reliability metrics object
	fault_type "SLG-C";			//Type of fault for the object to induce
	manual_outages "line_630-632,2001-01-01 0:00:05,2001-01-01 00:00:06";
}

object eventgen {				//Event generation object - induces actual faults on the system - this one is a manual object
	name Node_632_DLG_AB;
	parent testmetrics;			//Parent it to the reliability metrics object
	fault_type "DLG-AB";			//Type of fault for the object to induce
	manual_outages "line_630-632,2001-01-01 0:00:07,2001-01-01 00:00:08";
}

object eventgen {				//Event generation object - induces actual faults on the system - this one is a manual object
	name Node_632_DLG_BC;
	parent testmetrics;			//Parent it to the reliability metrics object
	fault_type "DLG-BC";			//Type of fault for the object to induce
	manual_outages "line_630-632,2001-01-01 0:00:09,2001-01-01 00:00:10";
}

object eventgen {				//Event generation object - induces actual faults on the system - this one is a manual object
	name Node_632_DLG_CA;
	parent testmetrics;			//Parent it to the reliability metrics object
	fault_type "DLG-CA";			//Type of fault for the object to induce
	manual_outages "line_630-632,2001-01-01 0:00:11,2001-01-01 00:00:12";
}

object eventgen {				//Event generation object - induces actual faults on the system - this one is a manual object
	name Node_632_LL_AB;
	parent testmetrics;			//Parent it to the reliability metrics object
	fault_type "LL-AB";			//Type of fault for the object to induce
	manual_outages "line_630-632,2001-01-01 0:00:13,2001-01-01 00:00:14";
}

object eventgen {				//Event generation object - induces actual faults on the system - this one is a manual object
	name Node_632_LL_BC;
	parent testmetrics;			//Parent it to the reliability metrics object
	fault_type "LL-BC";			//Type of fault for the object to induce
	manual_outages "line_630-632,2001-01-01 0:00:15,2001-01-01 00:00:16";
}

object eventgen {				//Event generation object - induces actual faults on the system - this one is a manual object
	name Node_632_LL_CA;
	parent testmetrics;			//Parent it to the reliability metrics object
	fault_type "LL-CA";			//Type of fault for the object to induce
	manual_outages "line_630-632,2001-01-01 0:00:17,2001-01-01 00:00:18";
}

object eventgen {				//Event generation object - induces actual faults on the system - this one is a manual object
	name Node_632_TLG;
	parent testmetrics;			//Parent it to the reliability metrics object
	fault_type "TLG";			//Type of fault for the object to induce
	manual_outages "line_630-632,2001-01-01 0:00:19,2001-01-01 00:00:20";
}

object eventgen {				//Event generation object - induces actual faults on the system - this one is a manual object
	name Node_632_TLL;
	parent testmetrics;			//Parent it to the reliability metrics object
	fault_type "TLL";			//Type of fault for the object to induce
	manual_outages "line_630-632,2001-01-01 0:00:21,2001-01-01 00:00:22";
}

//faults for bus 633
object eventgen {				//Event generation object - induces actual faults on the system - this one is a manual object
	name Node_633_SLG_A;
	parent testmetrics;			//Parent it to the reliability metrics object
	fault_type "SLG-A";			//Type of fault for the object to induce
	manual_outages "line_632-633,2001-01-02 0:00:01,2001-01-02 00:00:02";
}

object eventgen {				//Event generation object - induces actual faults on the system - this one is a manual object
	name Node_633_SLG_B;
	parent testmetrics;			//Parent it to the reliability metrics object
	fault_type "SLG-B";			//Type of fault for the object to induce
	manual_outages "line_632-633,2001-01-02 0:00:03,2001-01-02 00:00:04";
}

object eventgen {				//Event generation object - induces actual faults on the system - this one is a manual object
	name Node_633_SLG_C;
	parent testmetrics;			//Parent it to the reliability metrics object
	fault_type "SLG-C";			//Type of fault for the object to induce
	manual_outages "line_632-633,2001-01-02 0:00:05,2001-01-02 00:00:06";
}

object eventgen {				//Event generation object - induces actual faults on the system - this one is a manual object
	name Node_633_DLG_AB;
	parent testmetrics;			//Parent it to the reliability metrics object
	fault_type "DLG-AB";			//Type of fault for the object to induce
	manual_outages "line_632-633,2001-01-02 0:00:07,2001-01-02 00:00:08";
}

object eventgen {				//Event generation object - induces actual faults on the system - this one is a manual object
	name Node_633_DLG_BC;
	parent testmetrics;			//Parent it to the reliability metrics object
	fault_type "DLG-BC";			//Type of fault for the object to induce
	manual_outages "line_632-633,2001-01-02 0:00:09,2001-01-02 00:00:10";
}

object eventgen {				//Event generation object - induces actual faults on the system - this one is a manual object
	name Node_633_DLG_CA;
	parent testmetrics;			//Parent it to the reliability metrics object
	fault_type "DLG-CA";			//Type of fault for the object to induce
	manual_outages "line_632-633,2001-01-02 0:00:11,2001-01-02 00:00:12";
}

object eventgen {				//Event generation object - induces actual faults on the system - this one is a manual object
	name Node_633_LL_AB;
	parent testmetrics;			//Parent it to the reliability metrics object
	fault_type "LL-AB";			//Type of fault for the object to induce
	manual_outages "line_632-633,2001-01-02 0:00:13,2001-01-02 00:00:14";
}

object eventgen {				//Event generation object - induces actual faults on the system - this one is a manual object
	name Node_633_LL_BC;
	parent testmetrics;			//Parent it to the reliability metrics object
	fault_type "LL-BC";			//Type of fault for the object to induce
	manual_outages "line_632-633,2001-01-02 0:00:15,2001-01-02 00:00:16";
}

object eventgen {				//Event generation object - induces actual faults on the system - this one is a manual object
	name Node_633_LL_CA;
	parent testmetrics;			//Parent it to the reliability metrics object
	fault_type "LL-CA";			//Type of fault for the object to induce
	manual_outages "line_632-633,2001-01-02 0:00:17,2001-01-02 00:00:18";
}

object eventgen {				//Event generation object - induces actual faults on the system - this one is a manual object
	name Node_633_TLG;
	parent testmetrics;			//Parent it to the reliability metrics object
	fault_type "TLG";			//Type of fault for the object to induce
	manual_outages "line_632-633,2001-01-02 0:00:19,2001-01-02 00:00:20";
}

object eventgen {				//Event generation object - induces actual faults on the system - this one is a manual object
	name Node_633_TLL;
	parent testmetrics;			//Parent it to the reliability metrics object
	fault_type "TLL";			//Type of fault for the object to induce
	manual_outages "line_632-633,2001-01-02 0:00:21,2001-01-02 00:00:22";
}

//faults for bus 634
object eventgen {				//Event generation object - induces actual faults on the system - this one is a manual object
	name Node_634_SLG_A;
	parent testmetrics;			//Parent it to the reliability metrics object
	fault_type "SLG-A";			//Type of fault for the object to induce
	manual_outages "switch_634-634,2001-01-03 0:00:01,2001-01-03 00:00:02";
}

object eventgen {				//Event generation object - induces actual faults on the system - this one is a manual object
	name Node_634_SLG_B;
	parent testmetrics;			//Parent it to the reliability metrics object
	fault_type "SLG-B";			//Type of fault for the object to induce
	manual_outages "switch_634-634,2001-01-03 0:00:03,2001-01-03 00:00:04";
}

object eventgen {				//Event generation object - induces actual faults on the system - this one is a manual object
	name Node_634_SLG_C;
	parent testmetrics;			//Parent it to the reliability metrics object
	fault_type "SLG-C";			//Type of fault for the object to induce
	manual_outages "switch_634-634,2001-01-03 0:00:05,2001-01-03 00:00:06";
}

object eventgen {				//Event generation object - induces actual faults on the system - this one is a manual object
	name Node_634_DLG_AB;
	parent testmetrics;			//Parent it to the reliability metrics object
	fault_type "DLG-AB";			//Type of fault for the object to induce
	manual_outages "switch_634-634,2001-01-03 0:00:07,2001-01-03 00:00:08";
}

object eventgen {				//Event generation object - induces actual faults on the system - this one is a manual object
	name Node_634_DLG_BC;
	parent testmetrics;			//Parent it to the reliability metrics object
	fault_type "DLG-BC";			//Type of fault for the object to induce
	manual_outages "switch_634-634,2001-01-03 0:00:09,2001-01-03 00:00:10";
}

object eventgen {				//Event generation object - induces actual faults on the system - this one is a manual object
	name Node_634_DLG_CA;
	parent testmetrics;			//Parent it to the reliability metrics object
	fault_type "DLG-CA";			//Type of fault for the object to induce
	manual_outages "switch_634-634,2001-01-03 0:00:11,2001-01-03 00:00:12";
}

object eventgen {				//Event generation object - induces actual faults on the system - this one is a manual object
	name Node_634_LL_AB;
	parent testmetrics;			//Parent it to the reliability metrics object
	fault_type "LL-AB";			//Type of fault for the object to induce
	manual_outages "switch_634-634,2001-01-03 0:00:13,2001-01-03 00:00:14";
}

object eventgen {				//Event generation object - induces actual faults on the system - this one is a manual object
	name Node_634_LL_BC;
	parent testmetrics;			//Parent it to the reliability metrics object
	fault_type "LL-BC";			//Type of fault for the object to induce
	manual_outages "switch_634-634,2001-01-03 0:00:15,2001-01-03 00:00:16";
}

object eventgen {				//Event generation object - induces actual faults on the system - this one is a manual object
	name Node_634_LL_CA;
	parent testmetrics;			//Parent it to the reliability metrics object
	fault_type "LL-CA";			//Type of fault for the object to induce
	manual_outages "switch_634-634,2001-01-03 0:00:17,2001-01-03 00:00:18";
}

object eventgen {				//Event generation object - induces actual faults on the system - this one is a manual object
	name Node_634_TLG;
	parent testmetrics;			//Parent it to the reliability metrics object
	fault_type "TLG";			//Type of fault for the object to induce
	manual_outages "switch_634-634,2001-01-03 0:00:19,2001-01-03 00:00:20";
}

object eventgen {				//Event generation object - induces actual faults on the system - this one is a manual object
	name Node_634_TLL;
	parent testmetrics;			//Parent it to the reliability metrics object
	fault_type "TLL";			//Type of fault for the object to induce
	manual_outages "switch_634-634,2001-01-03 0:00:21,2001-01-03 00:00:22";
}

//faults for bus 645
object eventgen {				//Event generation object - induces actual faults on the system - this one is a manual object
	name Node_645_SLG_B;
	parent testmetrics;			//Parent it to the reliability metrics object
	fault_type "SLG-B";			//Type of fault for the object to induce
	manual_outages "line_632-645,2001-01-04 0:00:03,2001-01-04 00:00:04";
}

object eventgen {				//Event generation object - induces actual faults on the system - this one is a manual object
	name Node_645_SLG_C;
	parent testmetrics;			//Parent it to the reliability metrics object
	fault_type "SLG-C";			//Type of fault for the object to induce
	manual_outages "line_632-645,2001-01-04 0:00:05,2001-01-04 00:00:06";
}

object eventgen {				//Event generation object - induces actual faults on the system - this one is a manual object
	name Node_645_DLG_BC;
	parent testmetrics;			//Parent it to the reliability metrics object
	fault_type "DLG-BC";			//Type of fault for the object to induce
	manual_outages "line_632-645,2001-01-04 0:00:09,2001-01-04 00:00:10";
}

object eventgen {				//Event generation object - induces actual faults on the system - this one is a manual object
	name Node_645_LL_BC;
	parent testmetrics;			//Parent it to the reliability metrics object
	fault_type "LL-BC";			//Type of fault for the object to induce
	manual_outages "line_632-645,2001-01-04 0:00:15,2001-01-04 00:00:16";
}

//faults for bus 646
object eventgen {				//Event generation object - induces actual faults on the system - this one is a manual object
	name Node_646_SLG_B;
	parent testmetrics;			//Parent it to the reliability metrics object
	fault_type "SLG-B";			//Type of fault for the object to induce
	manual_outages "line_645-646,2001-01-05 0:00:03,2001-01-05 00:00:04";
}

object eventgen {				//Event generation object - induces actual faults on the system - this one is a manual object
	name Node_646_SLG_C;
	parent testmetrics;			//Parent it to the reliability metrics object
	fault_type "SLG-C";			//Type of fault for the object to induce
	manual_outages "line_645-646,2001-01-05 0:00:05,2001-01-05 00:00:06";
}

object eventgen {				//Event generation object - induces actual faults on the system - this one is a manual object
	name Node_646_DLG_BC;
	parent testmetrics;			//Parent it to the reliability metrics object
	fault_type "DLG-BC";			//Type of fault for the object to induce
	manual_outages "line_645-646,2001-01-05 0:00:09,2001-01-05 00:00:10";
}

object eventgen {				//Event generation object - induces actual faults on the system - this one is a manual object
	name Node_646_LL_BC;
	parent testmetrics;			//Parent it to the reliability metrics object
	fault_type "LL-BC";			//Type of fault for the object to induce
	manual_outages "line_645-646,2001-01-05 0:00:15,2001-01-05 00:00:16";
}

//faults for bus 671
object eventgen {				//Event generation object - induces actual faults on the system - this one is a manual object
	name Node_671_SLG_A;
	parent testmetrics;			//Parent it to the reliability metrics object
	fault_type "SLG-A";			//Type of fault for the object to induce
	manual_outages "line_6321-671,2001-01-06 0:00:01,2001-01-06 00:00:02";
}

object eventgen {				//Event generation object - induces actual faults on the system - this one is a manual object
	name Node_671_SLG_B;
	parent testmetrics;			//Parent it to the reliability metrics object
	fault_type "SLG-B";			//Type of fault for the object to induce
	manual_outages "line_6321-671,2001-01-06 0:00:03,2001-01-06 00:00:04";
}

object eventgen {				//Event generation object - induces actual faults on the system - this one is a manual object
	name Node_671_SLG_C;
	parent testmetrics;			//Parent it to the reliability metrics object
	fault_type "SLG-C";			//Type of fault for the object to induce
	manual_outages "line_6321-671,2001-01-06 0:00:05,2001-01-06 00:00:06";
}

object eventgen {				//Event generation object - induces actual faults on the system - this one is a manual object
	name Node_671_DLG_AB;
	parent testmetrics;			//Parent it to the reliability metrics object
	fault_type "DLG-AB";			//Type of fault for the object to induce
	manual_outages "line_6321-671,2001-01-06 0:00:07,2001-01-06 00:00:08";
}

object eventgen {				//Event generation object - induces actual faults on the system - this one is a manual object
	name Node_671_DLG_BC;
	parent testmetrics;			//Parent it to the reliability metrics object
	fault_type "DLG-BC";			//Type of fault for the object to induce
	manual_outages "line_6321-671,2001-01-06 0:00:09,2001-01-06 00:00:10";
}

object eventgen {				//Event generation object - induces actual faults on the system - this one is a manual object
	name Node_671_DLG_CA;
	parent testmetrics;			//Parent it to the reliability metrics object
	fault_type "DLG-CA";			//Type of fault for the object to induce
	manual_outages "line_6321-671,2001-01-06 0:00:11,2001-01-06 00:00:12";
}

object eventgen {				//Event generation object - induces actual faults on the system - this one is a manual object
	name Node_671_LL_AB;
	parent testmetrics;			//Parent it to the reliability metrics object
	fault_type "LL-AB";			//Type of fault for the object to induce
	manual_outages "line_6321-671,2001-01-06 0:00:13,2001-01-06 00:00:14";
}

object eventgen {				//Event generation object - induces actual faults on the system - this one is a manual object
	name Node_671_LL_BC;
	parent testmetrics;			//Parent it to the reliability metrics object
	fault_type "LL-BC";			//Type of fault for the object to induce
	manual_outages "line_6321-671,2001-01-06 0:00:15,2001-01-06 00:00:16";
}

object eventgen {				//Event generation object - induces actual faults on the system - this one is a manual object
	name Node_671_LL_CA;
	parent testmetrics;			//Parent it to the reliability metrics object
	fault_type "LL-CA";			//Type of fault for the object to induce
	manual_outages "line_6321-671,2001-01-06 0:00:17,2001-01-06 00:00:18";
}

object eventgen {				//Event generation object - induces actual faults on the system - this one is a manual object
	name Node_671_TLG;
	parent testmetrics;			//Parent it to the reliability metrics object
	fault_type "TLG";			//Type of fault for the object to induce
	manual_outages "line_6321-671,2001-01-06 0:00:19,2001-01-06 00:00:20";
}

object eventgen {				//Event generation object - induces actual faults on the system - this one is a manual object
	name Node_671_TLL;
	parent testmetrics;			//Parent it to the reliability metrics object
	fault_type "TLL";			//Type of fault for the object to induce
	manual_outages "line_6321-671,2001-01-06 0:00:21,2001-01-06 00:00:22";
}

//faults for bus 680
object eventgen {				//Event generation object - induces actual faults on the system - this one is a manual object
	name Node_680_SLG_A;
	parent testmetrics;			//Parent it to the reliability metrics object
	fault_type "SLG-A";			//Type of fault for the object to induce
	manual_outages "line_671-680,2001-01-07 0:00:01,2001-01-07 00:00:02";
}

object eventgen {				//Event generation object - induces actual faults on the system - this one is a manual object
	name Node_680_SLG_B;
	parent testmetrics;			//Parent it to the reliability metrics object
	fault_type "SLG-B";			//Type of fault for the object to induce
	manual_outages "line_671-680,2001-01-07 0:00:03,2001-01-07 00:00:04";
}

object eventgen {				//Event generation object - induces actual faults on the system - this one is a manual object
	name Node_680_SLG_C;
	parent testmetrics;			//Parent it to the reliability metrics object
	fault_type "SLG-C";			//Type of fault for the object to induce
	manual_outages "line_671-680,2001-01-07 0:00:05,2001-01-07 00:00:06";
}

object eventgen {				//Event generation object - induces actual faults on the system - this one is a manual object
	name Node_680_DLG_AB;
	parent testmetrics;			//Parent it to the reliability metrics object
	fault_type "DLG-AB";			//Type of fault for the object to induce
	manual_outages "line_671-680,2001-01-07 0:00:07,2001-01-07 00:00:08";
}

object eventgen {				//Event generation object - induces actual faults on the system - this one is a manual object
	name Node_680_DLG_BC;
	parent testmetrics;			//Parent it to the reliability metrics object
	fault_type "DLG-BC";			//Type of fault for the object to induce
	manual_outages "line_671-680,2001-01-07 0:00:09,2001-01-07 00:00:10";
}

object eventgen {				//Event generation object - induces actual faults on the system - this one is a manual object
	name Node_680_DLG_CA;
	parent testmetrics;			//Parent it to the reliability metrics object
	fault_type "DLG-CA";			//Type of fault for the object to induce
	manual_outages "line_671-680,2001-01-07 0:00:11,2001-01-07 00:00:12";
}

object eventgen {				//Event generation object - induces actual faults on the system - this one is a manual object
	name Node_680_LL_AB;
	parent testmetrics;			//Parent it to the reliability metrics object
	fault_type "LL-AB";			//Type of fault for the object to induce
	manual_outages "line_671-680,2001-01-07 0:00:13,2001-01-07 00:00:14";
}

object eventgen {				//Event generation object - induces actual faults on the system - this one is a manual object
	name Node_680_LL_BC;
	parent testmetrics;			//Parent it to the reliability metrics object
	fault_type "LL-BC";			//Type of fault for the object to induce
	manual_outages "line_671-680,2001-01-07 0:00:15,2001-01-07 00:00:16";
}

object eventgen {				//Event generation object - induces actual faults on the system - this one is a manual object
	name Node_680_LL_CA;
	parent testmetrics;			//Parent it to the reliability metrics object
	fault_type "LL-CA";			//Type of fault for the object to induce
	manual_outages "line_671-680,2001-01-07 0:00:17,2001-01-07 00:00:18";
}

object eventgen {				//Event generation object - induces actual faults on the system - this one is a manual object
	name Node_680_TLG;
	parent testmetrics;			//Parent it to the reliability metrics object
	fault_type "TLG";			//Type of fault for the object to induce
	manual_outages "line_671-680,2001-01-07 0:00:19,2001-01-07 00:00:20";
}

object eventgen {				//Event generation object - induces actual faults on the system - this one is a manual object
	name Node_680_TLL;
	parent testmetrics;			//Parent it to the reliability metrics object
	fault_type "TLL";			//Type of fault for the object to induce
	manual_outages "line_671-680,2001-01-07 0:00:21,2001-01-07 00:00:22";
}

//faults for bus 684
object eventgen {				//Event generation object - induces actual faults on the system - this one is a manual object
	name Node_684_SLG_A;
	parent testmetrics;			//Parent it to the reliability metrics object
	fault_type "SLG-A";			//Type of fault for the object to induce
	manual_outages "line_671-684,2001-01-08 0:00:01,2001-01-08 00:00:02";
}

object eventgen {				//Event generation object - induces actual faults on the system - this one is a manual object
	name Node_684_SLG_C;
	parent testmetrics;			//Parent it to the reliability metrics object
	fault_type "SLG-C";			//Type of fault for the object to induce
	manual_outages "line_671-684,2001-01-08 0:00:05,2001-01-08 00:00:06";
}

object eventgen {				//Event generation object - induces actual faults on the system - this one is a manual object
	name Node_684_DLG_CA;
	parent testmetrics;			//Parent it to the reliability metrics object
	fault_type "DLG-CA";			//Type of fault for the object to induce
	manual_outages "line_671-684,2001-01-08 0:00:11,2001-01-08 00:00:12";
}

object eventgen {				//Event generation object - induces actual faults on the system - this one is a manual object
	name Node_684_LL_CA;
	parent testmetrics;			//Parent it to the reliability metrics object
	fault_type "LL-CA";			//Type of fault for the object to induce
	manual_outages "line_671-684,2001-01-08 0:00:17,2001-01-08 00:00:18";
}

//faults for bus 611
object eventgen {				//Event generation object - induces actual faults on the system - this one is a manual object
	name Node_611_SLG_C;
	parent testmetrics;			//Parent it to the reliability metrics object
	fault_type "SLG-C";			//Type of fault for the object to induce
	manual_outages "line_684-611,2001-01-09 0:00:01,2001-01-09 00:00:02";
	max_outage_length 5;
}

//faults for bus 652
object eventgen {				//Event generation object - induces actual faults on the system - this one is a manual object
	name Node_652_SLG_A;
	parent testmetrics;			//Parent it to the reliability metrics object
	fault_type "SLG-A";			//Type of fault for the object to induce
	manual_outages "line_684-652,2001-01-10 0:00:01,2001-01-10 00:00:02";
	max_outage_length 5;
}

//faults for bus 692
object eventgen {				//Event generation object - induces actual faults on the system - this one is a manual object
	name Node_692_SLG_A;
	parent testmetrics;			//Parent it to the reliability metrics object
	fault_type "SLG-A";			//Type of fault for the object to induce
	manual_outages "switch_671-692,2001-01-11 0:00:01,2001-01-11 00:00:02";
}
