 // $Id: R5-35.00-1.glm
 // 34.5 kV feeder
 //*********************************************
// validates FBS-solved voltages at selected load, node, meter, triplex_node, and
// triplex_meter objects
//
//
// uses newer taxonomy feeders (shunt impedance has been added to
// transformers)
//
// written by alek332
clock{
	timezone EST+8EDT;
	timestamp '2000-01-01 0:00:00';
	stoptime '2000-01-01 1:00:00';
}

#set profiler=1
 //*********************************************
 // modules
module assert;
module tape; 
module powerflow{ 
     solver_method FBS; 
      default_maximum_voltage_error 1e-6;
}; 

//********************************************* 
object regulator:1861 { 
     name R5-35-00-1_reg_1; 
     from R5-35-00-1_node_339; 
     to R5-35-00-1_meter_48; 
     phases ABCN; 
     configuration regulator_configuration:1862; 
     object recorder { 
          property tap_A,tap_B,tap_C,power_in_A.real,power_in_A.imag,power_in_B.real,power_in_B.imag,power_in_C.real,power_in_C.imag,power_in.real,power_in.imag; 
          limit 1440; 
          interval 60; 
          file "R5-35.00-1_reg_output.csv"; 
     }; 
} 

object regulator_configuration:1862 { 
     name feeder_reg_cfg; 
     Control OUTPUT_VOLTAGE; 
     band_center 20748.0; 
     band_width 332; 
     connect_type WYE_WYE; 
     time_delay 30; 
     raise_taps 16; 
     lower_taps 16; 
     regulation 0.10; 
     tap_pos_A 0; 
     tap_pos_B 0; 
     tap_pos_C 0; 
} 

object fuse:1789 { 
     name R5-35-00-1_fuse_1; 
     phases ABCN; 
     from R5-35-00-1_node_279; 
     to R5-35-00-1_node_1; 
     current_limit 75; 
     status CLOSED; 
} 

object fuse:1790 { 
     name R5-35-00-1_fuse_2; 
     phases ABCN; 
     from R5-35-00-1_node_278; 
     to R5-35-00-1_node_2; 
     current_limit 75; 
     status CLOSED; 
} 

object fuse:1791 { 
     name R5-35-00-1_fuse_3; 
     phases CN; 
     from R5-35-00-1_node_25; 
     to R5-35-00-1_node_24; 
     current_limit 50; 
     status CLOSED; 
} 

object fuse:1792 { 
     name R5-35-00-1_fuse_4; 
     phases CN; 
     from R5-35-00-1_node_26; 
     to R5-35-00-1_node_30; 
     current_limit 50; 
     status CLOSED; 
} 

object fuse:1793 { 
     name R5-35-00-1_fuse_5; 
     phases BN; 
     from R5-35-00-1_node_238; 
     to R5-35-00-1_node_51; 
     current_limit 50; 
     status CLOSED; 
} 

object fuse:1794 { 
     name R5-35-00-1_fuse_6; 
     phases CN; 
     from R5-35-00-1_node_242; 
     to R5-35-00-1_node_52; 
     current_limit 50; 
     status CLOSED; 
} 

object fuse:1795 { 
     name R5-35-00-1_fuse_7; 
     phases AN; 
     from R5-35-00-1_node_241; 
     to R5-35-00-1_node_57; 
     current_limit 75; 
     status CLOSED; 
} 

object fuse:1796 { 
     name R5-35-00-1_fuse_8; 
     phases BN; 
     from R5-35-00-1_node_222; 
     to R5-35-00-1_node_65; 
     current_limit 50; 
     status CLOSED; 
} 

object fuse:1797 { 
     name R5-35-00-1_fuse_9; 
     phases CN; 
     from R5-35-00-1_node_221; 
     to R5-35-00-1_node_75; 
     current_limit 75; 
     status CLOSED; 
} 

object fuse:1798 { 
     name R5-35-00-1_fuse_10; 
     phases CN; 
     from R5-35-00-1_node_272; 
     to R5-35-00-1_node_91; 
     current_limit 50; 
     status CLOSED; 
} 

object fuse:1799 { 
     name R5-35-00-1_fuse_11; 
     phases BN; 
     from R5-35-00-1_node_271; 
     to R5-35-00-1_node_101; 
     current_limit 50; 
     status CLOSED; 
} 

object fuse:1800 { 
     name R5-35-00-1_fuse_12; 
     phases AN; 
     from R5-35-00-1_node_273; 
     to R5-35-00-1_node_103; 
     current_limit 50; 
     status CLOSED; 
} 

object fuse:1801 { 
     name R5-35-00-1_fuse_13; 
     phases AN; 
     from R5-35-00-1_node_288; 
     to R5-35-00-1_node_110; 
     current_limit 50; 
     status CLOSED; 
} 

object fuse:1802 { 
     name R5-35-00-1_fuse_14; 
     phases BN; 
     from R5-35-00-1_node_230; 
     to R5-35-00-1_node_112; 
     current_limit 50; 
     status CLOSED; 
} 

object fuse:1803 { 
     name R5-35-00-1_fuse_15; 
     phases CN; 
     from R5-35-00-1_node_227; 
     to R5-35-00-1_node_113; 
     current_limit 50; 
     status CLOSED; 
} 

object fuse:1804 { 
     name R5-35-00-1_fuse_16; 
     phases AN; 
     from R5-35-00-1_node_231; 
     to R5-35-00-1_node_114; 
     current_limit 50; 
     status CLOSED; 
} 

object fuse:1805 { 
     name R5-35-00-1_fuse_17; 
     phases CN; 
     from R5-35-00-1_node_263; 
     to R5-35-00-1_node_133; 
     current_limit 50; 
     status CLOSED; 
} 

object fuse:1806 { 
     name R5-35-00-1_fuse_18; 
     phases BN; 
     from R5-35-00-1_node_264; 
     to R5-35-00-1_node_134; 
     current_limit 50; 
     status CLOSED; 
} 

object fuse:1807 { 
     name R5-35-00-1_fuse_19; 
     phases AN; 
     from R5-35-00-1_node_220; 
     to R5-35-00-1_node_143; 
     current_limit 50; 
     status CLOSED; 
} 

object fuse:1808 { 
     name R5-35-00-1_fuse_20; 
     phases CN; 
     from R5-35-00-1_node_249; 
     to R5-35-00-1_node_152; 
     current_limit 50; 
     status CLOSED; 
} 

object fuse:1809 { 
     name R5-35-00-1_fuse_21; 
     phases ABCN; 
     from R5-35-00-1_node_165; 
     to R5-35-00-1_node_166; 
     current_limit 50; 
     status CLOSED; 
} 

object fuse:1810 { 
     name R5-35-00-1_fuse_22; 
     phases ABCN; 
     from R5-35-00-1_node_197; 
     to R5-35-00-1_node_196; 
     current_limit 500; 
     status CLOSED; 
} 

object fuse:1811 { 
     name R5-35-00-1_fuse_23; 
     phases ABCN; 
     from R5-35-00-1_node_206; 
     to R5-35-00-1_node_200; 
     current_limit 50; 
     status CLOSED; 
} 

object fuse:1812 { 
     name R5-35-00-1_fuse_24; 
     phases ABCN; 
     from R5-35-00-1_node_205; 
     to R5-35-00-1_node_204; 
     current_limit 500; 
     status CLOSED; 
} 

object fuse:1813 { 
     name R5-35-00-1_fuse_25; 
     phases ABCN; 
     from R5-35-00-1_node_214; 
     to R5-35-00-1_node_210; 
     current_limit 500; 
     status CLOSED; 
} 

object fuse:1814 { 
     name R5-35-00-1_fuse_26; 
     phases ABCN; 
     from R5-35-00-1_node_213; 
     to R5-35-00-1_node_212; 
     current_limit 50; 
     status CLOSED; 
} 

object fuse:1815 { 
     name R5-35-00-1_fuse_27; 
     phases ABCN; 
     from R5-35-00-1_node_324; 
     to R5-35-00-1_node_214; 
     current_limit 500; 
     status CLOSED; 
} 

object fuse:1816 { 
     name R5-35-00-1_fuse_28; 
     phases ABCN; 
     from R5-35-00-1_node_247; 
     to R5-35-00-1_node_245; 
     current_limit 50; 
     status CLOSED; 
} 

object fuse:1817 { 
     name R5-35-00-1_fuse_29; 
     phases AN; 
     from R5-35-00-1_node_265; 
     to R5-35-00-1_node_255; 
     current_limit 50; 
     status CLOSED; 
} 

object fuse:1818 { 
     name R5-35-00-1_fuse_30; 
     phases ABCN; 
     from R5-35-00-1_node_262; 
     to R5-35-00-1_node_256; 
     current_limit 50; 
     status CLOSED; 
} 

object fuse:1819 { 
     name R5-35-00-1_fuse_31; 
     phases CN; 
     from R5-35-00-1_node_292; 
     to R5-35-00-1_node_283; 
     current_limit 50; 
     status CLOSED; 
} 

object fuse:1820 { 
     name R5-35-00-1_fuse_32; 
     phases BN; 
     from R5-35-00-1_node_291; 
     to R5-35-00-1_node_295; 
     current_limit 50; 
     status CLOSED; 
} 

object fuse:1821 { 
     name R5-35-00-1_fuse_33; 
     phases CN; 
     from R5-35-00-1_node_314; 
     to R5-35-00-1_node_301; 
     current_limit 75; 
     status CLOSED; 
} 

object fuse:1822 { 
     name R5-35-00-1_fuse_34; 
     phases AN; 
     from R5-35-00-1_node_315; 
     to R5-35-00-1_node_302; 
     current_limit 500; 
     status CLOSED; 
} 

object fuse:1823 { 
     name R5-35-00-1_fuse_35; 
     phases BN; 
     from R5-35-00-1_node_316; 
     to R5-35-00-1_node_307; 
     current_limit 50; 
     status CLOSED; 
} 

object fuse:1824 { 
     name R5-35-00-1_fuse_36; 
     phases ABCN; 
     from R5-35-00-1_node_322; 
     to R5-35-00-1_node_325; 
     current_limit 50; 
     status CLOSED; 
} 

object line_configuration:13 { 
     conductor_A underground_line_conductor:2; 
     conductor_B underground_line_conductor:2; 
     conductor_C underground_line_conductor:2; 
     conductor_N underground_line_conductor:2; 
     spacing line_spacing:7; 
} 

object line_configuration:14 { 
     conductor_A underground_line_conductor:3; 
     conductor_B underground_line_conductor:3; 
     conductor_C underground_line_conductor:3; 
     conductor_N underground_line_conductor:3; 
     spacing line_spacing:7; 
} 

object line_configuration:15 { 
     conductor_A underground_line_conductor:4; 
     conductor_N underground_line_conductor:4; 
     spacing line_spacing:8; 
} 

object line_configuration:16 { 
     conductor_A underground_line_conductor:5; 
     conductor_N underground_line_conductor:5; 
     spacing line_spacing:8; 
} 

object line_configuration:17 { 
     conductor_A overhead_line_conductor:6; 
     conductor_B overhead_line_conductor:6; 
     conductor_C overhead_line_conductor:6; 
     conductor_N overhead_line_conductor:6; 
     spacing line_spacing:9; 
} 

object line_configuration:18 { 
     conductor_B underground_line_conductor:5; 
     conductor_N underground_line_conductor:5; 
     spacing line_spacing:10; 
} 

object line_configuration:19 { 
     conductor_A underground_line_conductor:3; 
     conductor_N underground_line_conductor:3; 
     spacing line_spacing:8; 
} 

object line_configuration:20 { 
     conductor_A underground_line_conductor:5; 
     conductor_B underground_line_conductor:5; 
     conductor_C underground_line_conductor:5; 
     conductor_N underground_line_conductor:5; 
     spacing line_spacing:7; 
} 

object line_configuration:21 { 
     conductor_C underground_line_conductor:3; 
     conductor_N underground_line_conductor:3; 
     spacing line_spacing:11; 
} 

object line_configuration:22 { 
     conductor_C underground_line_conductor:2; 
     conductor_N underground_line_conductor:2; 
     spacing line_spacing:11; 
} 

object line_configuration:23 { 
     conductor_C underground_line_conductor:5; 
     conductor_N underground_line_conductor:5; 
     spacing line_spacing:11; 
} 

object line_configuration:24 { 
     conductor_B underground_line_conductor:2; 
     conductor_N underground_line_conductor:2; 
     spacing line_spacing:10; 
} 

object line_configuration:25 { 
     conductor_B underground_line_conductor:3; 
     conductor_N underground_line_conductor:3; 
     spacing line_spacing:10; 
} 

object line_configuration:26 { 
     conductor_A underground_line_conductor:2; 
     conductor_N underground_line_conductor:2; 
     spacing line_spacing:8; 
} 

object line_configuration:27 { 
     conductor_A overhead_line_conductor:6; 
     conductor_B overhead_line_conductor:6; 
     conductor_C overhead_line_conductor:6; 
     conductor_N overhead_line_conductor:6; 
     spacing line_spacing:12; 
} 

object line_spacing:7 { 
     distance_AB 12.0 in; 
     distance_BC 12.0 in; 
     distance_AC 12.0 in; 
     distance_AN 360.0 in; 
     distance_BN 360.0 in; 
     distance_CN 360.0 in; 
} 

object line_spacing:8 { 
     distance_AN 360.0 in; 
} 

object line_spacing:9 { 
     distance_AB 65.90000000004 in; 
     distance_BC 65.90000000004 in; 
     distance_AC 65.90000000004 in; 
     distance_AN 85.59999999996 in; 
     distance_BN 85.59999999996 in; 
     distance_CN 85.59999999996 in; 
} 

object line_spacing:10 { 
     distance_BN 360.0 in; 
} 

object line_spacing:11 { 
     distance_CN 360.0 in; 
} 

object line_spacing:12 { 
     distance_AB 60.50000000004 in; 
     distance_BC 60.50000000004 in; 
     distance_AC 60.50000000004 in; 
     distance_AN 84.6 in; 
     distance_BN 84.6 in; 
     distance_CN 84.6 in; 
} 

object load:366 { 
     name R5-35-00-1_load_1; 
     parent R5-35-00-1_meter_1; 
     phases ABCN; 
     voltage_A 19918.58+0.0j; 
     voltage_B -9959.29-17250j; 
     voltage_C -9959.29+17250j; 
     constant_power_A 108400+29900j; 
     constant_power_B 108400+29900j; 
     constant_power_C 108400+29900j; 
     nominal_voltage 19918.58; 
     load_class C; 
} 

object load:367 { 
     name R5-35-00-1_load_2; 
     parent R5-35-00-1_meter_2; 
     phases ABCN; 
     voltage_A 19918.58+0.0j; 
     voltage_B -9959.29-17250j; 
     voltage_C -9959.29+17250j; 
     constant_power_A 5300+3300j; 
     constant_power_B 5300+3300j; 
     constant_power_C 5300+3300j; 
     nominal_voltage 19918.58; 
     load_class C; 
	 // object recorder {
		// property voltage_A,voltage_B,voltage_C;
		// interval 60;
		// limit 1440;
		// file "367.csv";
	// };
	object complex_assert{
		target voltage_A;
		value +287.694-0.147854j;
		within 1;
		once ONCE_TRUE;
		in '2000-01-01 00:04:00 EST';
	};
	object complex_assert{
		target voltage_B;
		once ONCE_TRUE;
		in '2000-01-01 00:04:00 EST';
		value -143.976-249.109j;
		within 1;
	};
	object complex_assert{
		target voltage_C;
		once ONCE_TRUE;
		in '2000-01-01 00:04:00 EST';
		value -143.715+249.21j;
		within 1;
	};
} 

object load:368 { 
     name R5-35-00-1_load_3; 
     parent R5-35-00-1_meter_3; 
     phases ABCN; 
     voltage_A 19918.58+0.0j; 
     voltage_B -9959.29-17250j; 
     voltage_C -9959.29+17250j; 
     constant_power_A 14900+9300j; 
     constant_power_B 14900+9300j; 
     constant_power_C 14900+9300j; 
     nominal_voltage 19918.58; 
     load_class C; 
} 

object load:369 { 
     name R5-35-00-1_load_4; 
     parent R5-35-00-1_meter_4; 
     phases ABCN; 
     voltage_A 19918.58+0.0j; 
     voltage_B -9959.29-17250j; 
     voltage_C -9959.29+17250j; 
     constant_power_A 126900+78700j; 
     constant_power_B 126900+78700j; 
     constant_power_C 126900+78700j; 
     nominal_voltage 19918.58; 
     load_class C; 
} 

object load:370 { 
     name R5-35-00-1_load_5; 
     parent R5-35-00-1_meter_5; 
     phases ABCN; 
     voltage_A 19918.58+0.0j; 
     voltage_B -9959.29-17250j; 
     voltage_C -9959.29+17250j; 
     constant_power_A 33300+16650j; 
     constant_power_B 33300+16650j; 
     constant_power_C 33300+16650j; 
     nominal_voltage 19918.58; 
     load_class C; 
} 

object load:371 { 
     name R5-35-00-1_load_6; 
     parent R5-35-00-1_meter_6; 
     phases ABCN; 
     voltage_A 19918.58+0.0j; 
     voltage_B -9959.29-17250j; 
     voltage_C -9959.29+17250j; 
     constant_power_A 14700+9100j; 
     constant_power_B 14700+9100j; 
     constant_power_C 14700+9100j; 
     nominal_voltage 19918.58; 
     load_class C; 
} 

object load:372 { 
     name R5-35-00-1_load_7; 
     parent R5-35-00-1_meter_7; 
     phases ABCN; 
     voltage_A 19918.58+0.0j; 
     voltage_B -9959.29-17250j; 
     voltage_C -9959.29+17250j; 
     constant_power_A 30300+18800j; 
     constant_power_B 30300+18800j; 
     constant_power_C 30300+18800j; 
     nominal_voltage 19918.58; 
     load_class C; 
} 

object load:373 { 
     name R5-35-00-1_load_8; 
     parent R5-35-00-1_meter_8; 
     phases ABCN; 
     voltage_A 19918.58+0.0j; 
     voltage_B -9959.29-17250j; 
     voltage_C -9959.29+17250j; 
     constant_power_A 5586+3528j; 
     constant_power_B 5586+3528j; 
     constant_power_C 5586+3528j; 
     nominal_voltage 19918.58; 
     load_class C; 
} 

object load:374 { 
     name R5-35-00-1_load_9; 
     parent R5-35-00-1_meter_9; 
     phases CN; 
     voltage_C -9959.29+17250j; 
     constant_power_C 19980+9990j; 
     nominal_voltage 19918.58; 
     load_class C; 
} 

object load:375 { 
     name R5-35-00-1_load_10; 
     parent R5-35-00-1_meter_10; 
     phases CN; 
     voltage_C -9959.29+17250j; 
     constant_power_C 13320+6660j; 
     nominal_voltage 19918.58; 
     load_class C; 
} 

object load:376 { 
     name R5-35-00-1_load_11; 
     parent R5-35-00-1_meter_11; 
     phases CN; 
     voltage_C -9959.29+17250j; 
     constant_power_C 200+100j; 
     nominal_voltage 19918.58; 
     load_class C; 
} 

object load:377 { 
     name R5-35-00-1_load_12; 
     parent R5-35-00-1_meter_12; 
     phases CN; 
     voltage_C -9959.29+17250j; 
     constant_power_C 200+100j; 
     nominal_voltage 19918.58; 
     load_class C; 
} 

object load:378 { 
     name R5-35-00-1_load_13; 
     parent R5-35-00-1_meter_13; 
     phases CN; 
     voltage_C -9959.29+17250j; 
     constant_power_C 45+27j; 
     nominal_voltage 19918.58; 
     load_class C; 
} 

object load:379 { 
     name R5-35-00-1_load_14; 
     parent R5-35-00-1_meter_14; 
     phases CN; 
     voltage_C -9959.29+17250j; 
     constant_power_C 6660+3330j; 
     nominal_voltage 19918.58; 
     load_class C; 
} 

object load:380 { 
     name R5-35-00-1_load_15; 
     parent R5-35-00-1_meter_15; 
     phases ABCN; 
     voltage_A 19918.58+0.0j; 
     voltage_B -9959.29-17250j; 
     voltage_C -9959.29+17250j; 
     constant_power_A 98000+60800j; 
     constant_power_B 98000+60800j; 
     constant_power_C 98000+60800j; 
     nominal_voltage 19918.58; 
     load_class C; 
} 

object load:381 { 
     name R5-35-00-1_load_16; 
     parent R5-35-00-1_meter_16; 
     phases ABCN; 
     voltage_A 19918.58+0.0j; 
     voltage_B -9959.29-17250j; 
     voltage_C -9959.29+17250j; 
     constant_power_A 6800+4200j; 
     constant_power_B 6800+4200j; 
     constant_power_C 6800+4200j; 
     nominal_voltage 19918.58; 
     load_class C; 
} 

object load:382 { 
     name R5-35-00-1_load_17; 
     parent R5-35-00-1_meter_17; 
     phases AN; 
     voltage_A 19918.58+0.0j; 
     constant_power_A 1220+648j; 
     nominal_voltage 19918.58; 
     load_class C; 
} 

object load:383 { 
     name R5-35-00-1_load_18; 
     parent R5-35-00-1_meter_18; 
     phases ABCN; 
     voltage_A 19918.58+0.0j; 
     voltage_B -9959.29-17250j; 
     voltage_C -9959.29+17250j; 
     constant_power_A 22200+13800j; 
     constant_power_B 22200+13800j; 
     constant_power_C 22200+13800j; 
     nominal_voltage 19918.58; 
     load_class C; 
} 

object load:384 { 
     name R5-35-00-1_load_19; 
     parent R5-35-00-1_meter_19; 
     phases CN; 
     voltage_C -9959.29+17250j; 
     constant_power_C 1055+598j; 
     nominal_voltage 19918.58; 
     load_class C; 
} 

object load:385 { 
     name R5-35-00-1_load_20; 
     parent R5-35-00-1_meter_20; 
     phases AN; 
     voltage_A 19918.58+0.0j; 
     constant_power_A 1006+570j; 
     nominal_voltage 19918.58; 
     load_class C; 
} 

object load:386 { 
     name R5-35-00-1_load_21; 
     parent R5-35-00-1_meter_21; 
     phases AN; 
     voltage_A 19918.58+0.0j; 
     constant_power_A 1056+598j; 
     nominal_voltage 19918.58; 
     load_class C; 
} 

object load:387 { 
     name R5-35-00-1_load_22; 
     parent R5-35-00-1_meter_22; 
     phases CN; 
     voltage_C -9959.29+17250j; 
     constant_power_C 21708+13065j; 
     nominal_voltage 19918.58; 
     load_class C; 
} 

object load:388 { 
     name R5-35-00-1_load_23; 
     parent R5-35-00-1_meter_23; 
     phases AN; 
     voltage_A 19918.58+0.0j; 
     constant_power_A 79920+39960j; 
     nominal_voltage 19918.58; 
     load_class C; 
} 

object load:389 { 
     name R5-35-00-1_load_24; 
     parent R5-35-00-1_meter_24; 
     phases AN; 
     voltage_A 19918.58+0.0j; 
     constant_power_A 283+161j; 
     nominal_voltage 19918.58; 
     load_class C; 
} 

object load:390 { 
     name R5-35-00-1_load_25; 
     parent R5-35-00-1_meter_25; 
     phases AN; 
     voltage_A 19918.58+0.0j; 
     constant_power_A 900+600j; 
     nominal_voltage 19918.58; 
     load_class C; 
} 

object load:391 { 
     name R5-35-00-1_load_26; 
     parent R5-35-00-1_meter_26; 
     phases AN; 
     voltage_A 19918.58+0.0j; 
     constant_power_A 5500+3400j; 
     nominal_voltage 19918.58; 
     load_class C; 
} 

object load:392 { 
     name R5-35-00-1_load_27; 
     parent R5-35-00-1_meter_27; 
     phases ABCN; 
     voltage_A 19918.58+0.0j; 
     voltage_B -9959.29-17250j; 
     voltage_C -9959.29+17250j; 
     constant_power_A 280100+195400j; 
     constant_power_B 280100+195400j; 
     constant_power_C 280100+195400j; 
     nominal_voltage 19918.58; 
     load_class C; 
} 

object load:393 { 
     name R5-35-00-1_load_28; 
     parent R5-35-00-1_meter_28; 
     phases ABCN; 
     voltage_A 19918.58+0.0j; 
     voltage_B -9959.29-17250j; 
     voltage_C -9959.29+17250j; 
     constant_power_A 13320+6660j; 
     constant_power_B 13320+6660j; 
     constant_power_C 13320+6660j; 
     nominal_voltage 19918.58; 
     load_class C; 
} 

object load:394 { 
     name R5-35-00-1_load_29; 
     parent R5-35-00-1_meter_29; 
     phases ABCN; 
     voltage_A 19918.58+0.0j; 
     voltage_B -9959.29-17250j; 
     voltage_C -9959.29+17250j; 
     constant_power_A 35400+21900j; 
     constant_power_B 35400+21900j; 
     constant_power_C 35400+21900j; 
     nominal_voltage 19918.58; 
     load_class C; 
} 

object load:395 { 
     name R5-35-00-1_load_30; 
     parent R5-35-00-1_meter_30; 
     phases CN; 
     voltage_C -9959.29+17250j; 
     constant_power_C 3069+1760j; 
     nominal_voltage 19918.58; 
     load_class C; 
} 

object load:396 { 
     name R5-35-00-1_load_31; 
     parent R5-35-00-1_meter_31; 
     phases CN; 
     voltage_C -9959.29+17250j; 
     constant_power_C 1704+836j; 
     nominal_voltage 19918.58; 
     load_class C; 
} 

object load:397 { 
     name R5-35-00-1_load_32; 
     parent R5-35-00-1_meter_32; 
     phases BN; 
     voltage_B -9959.29-17250j; 
     constant_power_B 1176+669j; 
     nominal_voltage 19918.58; 
     load_class C; 
} 

object load:398 { 
     name R5-35-00-1_load_33; 
     parent R5-35-00-1_meter_33; 
     phases BN; 
     voltage_B -9959.29-17250j; 
     constant_power_B 413+201j; 
     nominal_voltage 19918.58; 
     load_class C; 
} 

object load:399 { 
     name R5-35-00-1_load_34; 
     parent R5-35-00-1_meter_34; 
     phases AN; 
     voltage_A 19918.58+0.0j; 
     constant_power_A 4000+2500j; 
     nominal_voltage 19918.58; 
     load_class C; 
} 

object load:400 { 
     name R5-35-00-1_load_35; 
     parent R5-35-00-1_meter_35; 
     phases BN; 
     voltage_B -9959.29-17250j; 
     constant_power_B 26640+13320j; 
     nominal_voltage 19918.58; 
     load_class C; 
} 

object load:401 { 
     name R5-35-00-1_load_36; 
     parent R5-35-00-1_meter_36; 
     phases CN; 
     voltage_C -9959.29+17250j; 
     constant_power_C 402+228j; 
     nominal_voltage 19918.58; 
     load_class C; 
} 

object load:402 { 
     name R5-35-00-1_load_37; 
     parent R5-35-00-1_meter_37; 
     phases CN; 
     voltage_C -9959.29+17250j; 
     constant_power_C 7630+4480j; 
     nominal_voltage 19918.58; 
     load_class C; 
} 

object load:403 { 
     name R5-35-00-1_load_38; 
     parent R5-35-00-1_meter_38; 
     phases AN; 
     voltage_A 19918.58+0.0j; 
     constant_power_A 40000+20000j; 
     nominal_voltage 19918.58; 
     load_class C; 
} 

object load:404 { 
     name R5-35-00-1_load_39; 
     parent R5-35-00-1_meter_39; 
     phases AN; 
     voltage_A 19918.58+0.0j; 
     constant_power_A 2500+1500j; 
     nominal_voltage 19918.58; 
     load_class C; 
} 

object load:405 { 
     name R5-35-00-1_load_40; 
     parent R5-35-00-1_meter_40; 
     phases ABCN; 
     voltage_A 19918.58+0.0j; 
     voltage_B -9959.29-17250j; 
     voltage_C -9959.29+17250j; 
     constant_power_A 18700+11600j; 
     constant_power_B 18700+11600j; 
     constant_power_C 18700+11600j; 
     nominal_voltage 19918.58; 
     load_class C; 
} 

object load:406 { 
     name R5-35-00-1_load_41; 
     parent R5-35-00-1_meter_41; 
     phases ABCN; 
     voltage_A 19918.58+0.0j; 
     voltage_B -9959.29-17250j; 
     voltage_C -9959.29+17250j; 
     constant_power_A 10800+6700j; 
     constant_power_B 10800+6700j; 
     constant_power_C 10800+6700j; 
     nominal_voltage 19918.58; 
     load_class C; 
} 

object load:407 { 
     name R5-35-00-1_load_42; 
     parent R5-35-00-1_meter_42; 
     phases ABCN; 
     voltage_A 19918.58+0.0j; 
     voltage_B -9959.29-17250j; 
     voltage_C -9959.29+17250j; 
     constant_power_A 23700+14700j; 
     constant_power_B 23700+14700j; 
     constant_power_C 23700+14700j; 
     nominal_voltage 19918.58; 
     load_class C;
  	// object recorder {
		// property voltage_A,voltage_B,voltage_C;
		// interval 60;
		// limit 1440;
		// file "407.csv";
	// };
	object complex_assert{
		target voltage_A;
		once ONCE_TRUE;
		in '2000-01-01 00:04:00 EST';
		value +287.426-0.433947j;
		within 1;
	};
	object complex_assert{
		target voltage_B;
		once ONCE_TRUE;
		in '2000-01-01 00:04:00 EST';
		value -144.09-248.733j;
		within 1;
	};
	object complex_assert{
		once ONCE_TRUE;
		in '2000-01-01 00:04:00 EST';
		target voltage_C;
		value -143.333+249.121j;
		within 1;
	};	 
} 

object load:408 { 
     name R5-35-00-1_load_43; 
     parent R5-35-00-1_meter_43; 
     phases CN; 
     voltage_C -9959.29+17250j; 
     constant_power_C 97500+60400j; 
     nominal_voltage 19918.58; 
     load_class C; 
} 

object load:409 { 
     name R5-35-00-1_load_44; 
     parent R5-35-00-1_meter_44; 
     phases CN; 
     voltage_C -9959.29+17250j; 
     constant_power_C 66500+41200j; 
     nominal_voltage 19918.58; 
     load_class C; 
} 

object load:410 { 
     name R5-35-00-1_load_45; 
     parent R5-35-00-1_meter_45; 
     phases CN; 
     voltage_C -9959.29+17250j; 
     constant_power_C 6381+3606j; 
     nominal_voltage 19918.58; 
     load_class C; 
} 

object load:411 { 
     name R5-35-00-1_load_46; 
     parent R5-35-00-1_meter_46; 
     phases CN; 
     voltage_C -9959.29+17250j; 
     constant_power_C 910+518j; 
     nominal_voltage 19918.58; 
     load_class C; 
} 

object load:412 { 
     name R5-35-00-1_load_47; 
     parent R5-35-00-1_meter_47; 
     phases CN; 
     voltage_C -9959.29+17250j; 
     constant_power_C 1545+879j; 
     nominal_voltage 19918.58; 
     load_class C; 
} 

object meter:989 { 
     name R5-35-00-1_meter_1; 
     phases ABCN; 
     voltage_A 19918.58+0.0j; 
     voltage_B -9959.29-17250j; 
     voltage_C -9959.29+17250j; 
     nominal_voltage 19918.58; 
} 

object meter:990 { 
     name R5-35-00-1_meter_2; 
     phases ABCN; 
     voltage_A 19918.58+0.0j; 
     voltage_B -9959.29-17250j; 
     voltage_C -9959.29+17250j; 
     nominal_voltage 19918.58; 
} 

object meter:991 { 
     name R5-35-00-1_meter_3; 
     phases ABCN; 
     voltage_A 19918.58+0.0j; 
     voltage_B -9959.29-17250j; 
     voltage_C -9959.29+17250j; 
     nominal_voltage 19918.58; 
} 

object meter:992 { 
     name R5-35-00-1_meter_4; 
     phases ABCN; 
     voltage_A 19918.58+0.0j; 
     voltage_B -9959.29-17250j; 
     voltage_C -9959.29+17250j; 
     nominal_voltage 19918.58; 
} 

object meter:993 { 
     name R5-35-00-1_meter_5; 
     phases ABCN; 
     voltage_A 19918.58+0.0j; 
     voltage_B -9959.29-17250j; 
     voltage_C -9959.29+17250j; 
     nominal_voltage 19918.58; 
} 

object meter:994 { 
     name R5-35-00-1_meter_6; 
     phases ABCN; 
     voltage_A 19918.58+0.0j; 
     voltage_B -9959.29-17250j; 
     voltage_C -9959.29+17250j; 
     nominal_voltage 19918.58; 
} 

object meter:995 { 
     name R5-35-00-1_meter_7; 
     phases ABCN; 
     voltage_A 19918.58+0.0j; 
     voltage_B -9959.29-17250j; 
     voltage_C -9959.29+17250j; 
     nominal_voltage 19918.58; 
} 

object meter:996 { 
     name R5-35-00-1_meter_8; 
     phases ABCN; 
     voltage_A 19918.58+0.0j; 
     voltage_B -9959.29-17250j; 
     voltage_C -9959.29+17250j; 
     nominal_voltage 19918.58;
	  	// object recorder {
		// property voltage_A,voltage_B,voltage_C;
		// interval 60;
		// limit 1440;
		// file "996.csv";
	// };
	object complex_assert{
		target voltage_A;
		once ONCE_TRUE;
		in '2000-01-01 00:04:00 EST';
		value +286.832-0.344169j;
		within 1;
	};
	object complex_assert{
		target voltage_B;
		once ONCE_TRUE;
		in '2000-01-01 00:04:00 EST';
		value -143.819-248.488j;
		within 1;
	};
	object complex_assert{
		target voltage_C;
		once ONCE_TRUE;
		in '2000-01-01 00:04:00 EST';
		value -143.117+248.504j;
		within 1;
	};	 
} 

object meter:997 { 
     name R5-35-00-1_meter_9; 
     phases CN; 
     voltage_C -9959.29+17250j; 
     nominal_voltage 19918.58; 
} 

object meter:998 { 
     name R5-35-00-1_meter_10; 
     phases CN; 
     voltage_C -9959.29+17250j; 
     nominal_voltage 19918.58; 
} 

object meter:999 { 
     name R5-35-00-1_meter_11; 
     phases CN; 
     voltage_C -9959.29+17250j; 
     nominal_voltage 19918.58; 
} 

object meter:1000 { 
     name R5-35-00-1_meter_12; 
     phases CN; 
     voltage_C -9959.29+17250j; 
     nominal_voltage 19918.58; 
} 

object meter:1001 { 
     name R5-35-00-1_meter_13; 
     phases CN; 
     voltage_C -9959.29+17250j; 
     nominal_voltage 19918.58; 
} 

object meter:1002 { 
     name R5-35-00-1_meter_14; 
     phases CN; 
     voltage_C -9959.29+17250j; 
     nominal_voltage 19918.58; 
} 

object meter:1003 { 
     name R5-35-00-1_meter_15; 
     phases ABCN; 
     voltage_A 19918.58+0.0j; 
     voltage_B -9959.29-17250j; 
     voltage_C -9959.29+17250j; 
     nominal_voltage 19918.58; 
} 

object meter:1004 { 
     name R5-35-00-1_meter_16; 
     phases ABCN; 
     voltage_A 19918.58+0.0j; 
     voltage_B -9959.29-17250j; 
     voltage_C -9959.29+17250j; 
     nominal_voltage 19918.58; 
} 

object meter:1005 { 
     name R5-35-00-1_meter_17; 
     phases AN; 
     voltage_A 19918.58+0.0j; 
     nominal_voltage 19918.58; 
} 

object meter:1006 { 
     name R5-35-00-1_meter_18; 
     phases ABCN; 
     voltage_A 19918.58+0.0j; 
     voltage_B -9959.29-17250j; 
     voltage_C -9959.29+17250j; 
     nominal_voltage 19918.58; 
} 

object meter:1007 { 
     name R5-35-00-1_meter_19; 
     phases CN; 
     voltage_C -9959.29+17250j; 
     nominal_voltage 19918.58; 
} 

object meter:1008 { 
     name R5-35-00-1_meter_20; 
     phases AN; 
     voltage_A 19918.58+0.0j; 
     nominal_voltage 19918.58; 
} 

object meter:1009 { 
     name R5-35-00-1_meter_21; 
     phases AN; 
     voltage_A 19918.58+0.0j; 
     nominal_voltage 19918.58; 
} 

object meter:1010 { 
     name R5-35-00-1_meter_22; 
     phases CN; 
     voltage_C -9959.29+17250j; 
     nominal_voltage 19918.58; 
} 

object meter:1011 { 
     name R5-35-00-1_meter_23; 