// $Id: R5-12.47-1.glm 
// 13.8 kV feeder
//*********************************************
// validates voltages with FBS at selected load, node, meter, triplex_node, and
// triplex_meter objects
//
// written by alek332
clock{
	timezone EST+8EDT;
	timestamp '2000-01-01 0:00:00';
	stoptime '2000-01-01 1:00:00';
}

#set profiler=1
//*********************************************
// modules
module assert;
module tape;
module powerflow{
	solver_method FBS;
	default_maximum_voltage_error 1e-6;
	line_limits FALSE;
};
//*********************************************

object regulator:1728 {
	name R5-12-47-1_reg_1;
	from R5-12-47-1_node_266;
	to R5-12-47-1_meter_49;
	phases ABCN;
	configuration regulator_configuration:1729;
	// object recorder {
		 // property tap_A,tap_B,tap_C,power_in_A.real,power_in_A.imag,power_in_B.real,power_in_B.imag,power_in_C.real,power_in_C.imag,power_in.real,power_in.imag;
		 // limit 1440;
		 // interval 60;
		 // file "R5-12.27-1_reg_output.csv";
	// };
}


object regulator_configuration:1729 {
	name feeder_reg_cfg;
	Control OUTPUT_VOLTAGE;
	band_center 7967.0;
	band_width 132;
	connect_type WYE_WYE;
	time_delay 30;
	raise_taps 16;
	lower_taps 16;
	regulation 0.10;
	tap_pos_A 0;
	tap_pos_B 0;
	tap_pos_C 0;
}


object capacitor:1724 {
	name R5-12-47-1_cap_1;
	phases ABCN;
	pt_phase B;
	parent R5-12-47-1_node_261;
	phases_connected ABC;
	control VOLT;
	voltage_set_high 8300; 
	voltage_set_low 7900;
	capacitor_A 0.4 MVAr;
	capacitor_B 0.4 MVAr;
	capacitor_C 0.4 MVAr;
	control_level INDIVIDUAL;
	time_delay 30.0;
	dwell_time 30.0;
	cap_nominal_voltage 7970;
	nominal_voltage 7967.43;
	// object recorder {
		// property "switchA,switchB,switchC,voltage_A.real,voltage_A.imag,voltage_B.real,voltage_B.imag,voltage_C.real,voltage_C.imag";
		// file R5-12.47-1_capacitor1.csv;
		// interval 60;
		// limit 1440;
	// };
}

object capacitor:1725 {
	name R5-12-47-1_cap_2;
	phases ABCN;
	pt_phase B;
	parent R5-12-47-1_node_262;
	phases_connected ABC;
	control VOLT;
	voltage_set_high 8300; 
	voltage_set_low 7900;
	capacitor_A 0.2 MVAr;
	capacitor_B 0.2 MVAr;
	capacitor_C 0.2 MVAr;
	control_level INDIVIDUAL;
	time_delay 30.0;
	dwell_time 30.0;
	cap_nominal_voltage 7970;
	nominal_voltage 7967.43;
	object recorder {
		property "switchA,switchB,switchC,voltage_A.real,voltage_A.imag,voltage_B.real,voltage_B.imag,voltage_C.real,voltage_C.imag";
		file R5-12.47-1_capacitor2.csv;
		interval 60;
		limit 144;
	};
}

object capacitor:1726 {
	name R5-12-47-1_cap_3;
	phases ABCN;
	pt_phase B;
	parent R5-12-47-1_node_263;
	phases_connected ABC;
	control VOLT;
	voltage_set_high 8300; 
	voltage_set_low 7900;
	capacitor_A 0.4 MVAr;
	capacitor_B 0.4 MVAr;
	capacitor_C 0.4 MVAr;
	control_level INDIVIDUAL;
	time_delay 30.0;
	dwell_time 30.0;
	cap_nominal_voltage 7970;
	nominal_voltage 7967.43;
	object recorder {
		property "switchA,switchB,switchC,voltage_A.real,voltage_A.imag,voltage_B.real,voltage_B.imag,voltage_C.real,voltage_C.imag";
		file R5-12.47-1_capacitor3.csv;
		interval 60;
		limit 144;
	};
}


object fuse:1662 {
	name R5-12-47-1_fuse_1;
	phases ABCN;
	from R5-12-47-1_node_4;
	to R5-12-47-1_node_3;
	current_limit 150;
	status CLOSED;
}

object fuse:1663 {
	name R5-12-47-1_fuse_2;
	phases CN;
	from R5-12-47-1_node_7;
	to R5-12-47-1_node_8;
	current_limit 15;
	status CLOSED;
}

object fuse:1664 {
	name R5-12-47-1_fuse_3;
	phases BN;
	from R5-12-47-1_node_16;
	to R5-12-47-1_node_17;
	current_limit 125;
	status CLOSED;
}

object fuse:1665 {
	name R5-12-47-1_fuse_4;
	phases CN;
	from R5-12-47-1_node_19;
	to R5-12-47-1_node_20;
	current_limit 125;
	status CLOSED;
}

object fuse:1666 {
	name R5-12-47-1_fuse_5;
	phases BN;
	from R5-12-47-1_node_31;
	to R5-12-47-1_node_30;
	current_limit 125;
	status CLOSED;
}

object fuse:1667 {
	name R5-12-47-1_fuse_6;
	phases ABCN;
	from R5-12-47-1_node_56;
	to R5-12-47-1_node_54;
	current_limit 100;
	status CLOSED;
}

object fuse:1668 {
	name R5-12-47-1_fuse_7;
	phases ABCN;
	from R5-12-47-1_node_13;
	to R5-12-47-1_node_57;
	current_limit 125;
	status CLOSED;
}

object fuse:1669 {
	name R5-12-47-1_fuse_8;
	phases ABCN;
	from R5-12-47-1_node_65;
	to R5-12-47-1_node_66;
	current_limit 125;
	status CLOSED;
}

object fuse:1670 {
	name R5-12-47-1_fuse_9;
	phases ABCN;
	from R5-12-47-1_node_70;
	to R5-12-47-1_node_72;
	current_limit 125;
	status CLOSED;
}

object fuse:1671 {
	name R5-12-47-1_fuse_10;
	phases ABCN;
	from R5-12-47-1_node_73;
	to R5-12-47-1_node_76;
	current_limit 175;
	status CLOSED;
}

object fuse:1672 {
	name R5-12-47-1_fuse_11;
	phases ACN;
	from R5-12-47-1_node_103;
	to R5-12-47-1_node_85;
	current_limit 125;
	status CLOSED;
}

object fuse:1673 {
	name R5-12-47-1_fuse_12;
	phases AN;
	from R5-12-47-1_node_87;
	to R5-12-47-1_node_88;
	current_limit 125;
	status CLOSED;
}

object fuse:1674 {
	name R5-12-47-1_fuse_13;
	phases CN;
	from R5-12-47-1_node_101;
	to R5-12-47-1_node_93;
	current_limit 125;
	status CLOSED;
}

object fuse:1675 {
	name R5-12-47-1_fuse_14;
	phases BN;
	from R5-12-47-1_node_96;
	to R5-12-47-1_node_97;
	current_limit 125;
	status CLOSED;
}

object fuse:1676 {
	name R5-12-47-1_fuse_15;
	phases AN;
	from R5-12-47-1_node_99;
	to R5-12-47-1_node_100;
	current_limit 125;
	status CLOSED;
}

object fuse:1677 {
	name R5-12-47-1_fuse_16;
	phases BCN;
	from R5-12-47-1_node_139;
	to R5-12-47-1_node_121;
	current_limit 125;
	status CLOSED;
}

object fuse:1678 {
	name R5-12-47-1_fuse_17;
	phases CN;
	from R5-12-47-1_node_161;
	to R5-12-47-1_node_138;
	current_limit 125;
	status CLOSED;
}

object fuse:1679 {
	name R5-12-47-1_fuse_18;
	phases CN;
	from R5-12-47-1_node_150;
	to R5-12-47-1_node_151;
	current_limit 125;
	status CLOSED;
}

object fuse:1680 {
	name R5-12-47-1_fuse_19;
	phases BN;
	from R5-12-47-1_node_169;
	to R5-12-47-1_node_155;
	current_limit 125;
	status CLOSED;
}

object fuse:1681 {
	name R5-12-47-1_fuse_20;
	phases BN;
	from R5-12-47-1_node_157;
	to R5-12-47-1_node_158;
	current_limit 60;
	status CLOSED;
}

object fuse:1682 {
	name R5-12-47-1_fuse_21;
	phases ACN;
	from R5-12-47-1_node_167;
	to R5-12-47-1_node_168;
	current_limit 125;
	status CLOSED;
}

object fuse:1683 {
	name R5-12-47-1_fuse_22;
	phases CN;
	from R5-12-47-1_node_42;
	to R5-12-47-1_node_174;
	current_limit 125;
	status CLOSED;
}

object fuse:1684 {
	name R5-12-47-1_fuse_23;
	phases CN;
	from R5-12-47-1_node_47;
	to R5-12-47-1_node_180;
	current_limit 125;
	status CLOSED;
}

object fuse:1685 {
	name R5-12-47-1_fuse_24;
	phases ABCN;
	from R5-12-47-1_node_29;
	to R5-12-47-1_node_181;
	current_limit 125;
	status CLOSED;
}

object fuse:1686 {
	name R5-12-47-1_fuse_25;
	phases BN;
	from R5-12-47-1_node_102;
	to R5-12-47-1_node_190;
	current_limit 125;
	status CLOSED;
}

object fuse:1687 {
	name R5-12-47-1_fuse_26;
	phases BN;
	from R5-12-47-1_node_106;
	to R5-12-47-1_node_191;
	current_limit 125;
	status CLOSED;
}

object fuse:1688 {
	name R5-12-47-1_fuse_27;
	phases CN;
	from R5-12-47-1_node_110;
	to R5-12-47-1_node_195;
	current_limit 75;
	status CLOSED;
}

object fuse:1689 {
	name R5-12-47-1_fuse_28;
	phases ACN;
	from R5-12-47-1_node_143;
	to R5-12-47-1_node_203;
	current_limit 125;
	status CLOSED;
}

object fuse:1690 {
	name R5-12-47-1_fuse_29;
	phases CN;
	from R5-12-47-1_node_142;
	to R5-12-47-1_node_207;
	current_limit 125;
	status CLOSED;
}

object fuse:1691 {
	name R5-12-47-1_fuse_30;
	phases BN;
	from R5-12-47-1_node_141;
	to R5-12-47-1_node_211;
	current_limit 125;
	status CLOSED;
}

object fuse:1692 {
	name R5-12-47-1_fuse_31;
	phases AN;
	from R5-12-47-1_node_140;
	to R5-12-47-1_node_214;
	current_limit 125;
	status CLOSED;
}

object fuse:1693 {
	name R5-12-47-1_fuse_32;
	phases CN;
	from R5-12-47-1_node_6;
	to R5-12-47-1_node_217;
	current_limit 60;
	status CLOSED;
}

object fuse:1694 {
	name R5-12-47-1_fuse_33;
	phases ABN;
	from R5-12-47-1_node_137;
	to R5-12-47-1_node_223;
	current_limit 125;
	status CLOSED;
}

object fuse:1695 {
	name R5-12-47-1_fuse_34;
	phases AN;
	from R5-12-47-1_node_135;
	to R5-12-47-1_node_227;
	current_limit 125;
	status CLOSED;
}

object fuse:1696 {
	name R5-12-47-1_fuse_35;
	phases CN;
	from R5-12-47-1_node_125;
	to R5-12-47-1_node_231;
	current_limit 125;
	status CLOSED;
}

object fuse:1697 {
	name R5-12-47-1_fuse_36;
	phases BN;
	from R5-12-47-1_node_148;
	to R5-12-47-1_node_232;
	current_limit 125;
	status CLOSED;
}

object fuse:1698 {
	name R5-12-47-1_fuse_37;
	phases AN;
	from R5-12-47-1_node_144;
	to R5-12-47-1_node_233;
	current_limit 125;
	status CLOSED;
}

object fuse:1699 {
	name R5-12-47-1_fuse_38;
	phases BN;
	from R5-12-47-1_node_147;
	to R5-12-47-1_node_236;
	current_limit 75;
	status CLOSED;
}

object fuse:1700 {
	name R5-12-47-1_fuse_39;
	phases CN;
	from R5-12-47-1_node_162;
	to R5-12-47-1_node_243;
	current_limit 125;
	status CLOSED;
}

object fuse:1701 {
	name R5-12-47-1_fuse_40;
	phases CN;
	from R5-12-47-1_node_134;
	to R5-12-47-1_node_248;
	current_limit 125;
	status CLOSED;
}

object fuse:1702 {
	name R5-12-47-1_fuse_41;
	phases BN;
	from R5-12-47-1_node_159;
	to R5-12-47-1_node_249;
	current_limit 60;
	status CLOSED;
}

object fuse:1703 {
	name R5-12-47-1_fuse_42;
	phases BN;
	from R5-12-47-1_node_38;
	to R5-12-47-1_node_251;
	current_limit 75;
	status CLOSED;
}

object fuse:1704 {
	name R5-12-47-1_fuse_43;
	phases BN;
	from R5-12-47-1_node_40;
	to R5-12-47-1_node_252;
	current_limit 75;
	status CLOSED;
}

object fuse:1705 {
	name R5-12-47-1_fuse_44;
	phases ABCN;
	from R5-12-47-1_node_49;
	to R5-12-47-1_node_253;
	current_limit 50;
	status CLOSED;
}

object fuse:1706 {
	name R5-12-47-1_fuse_45;
	phases ABCN;
	from R5-12-47-1_node_55;
	to R5-12-47-1_node_254;
	current_limit 80;
	status CLOSED;
}

object fuse:1707 {
	name R5-12-47-1_fuse_46;
	phases ABCN;
	from R5-12-47-1_node_67;
	to R5-12-47-1_node_255;
	current_limit 50;
	status CLOSED;
}

object fuse:1708 {
	name R5-12-47-1_fuse_47;
	phases ABCN;
	from R5-12-47-1_node_62;
	to R5-12-47-1_node_256;
	current_limit 50;
	status CLOSED;
}

object fuse:1709 {
	name R5-12-47-1_fuse_48;
	phases BN;
	from R5-12-47-1_node_109;
	to R5-12-47-1_node_257;
	current_limit 75;
	status CLOSED;
}

object fuse:1710 {
	name R5-12-47-1_fuse_49;
	phases BN;
	from R5-12-47-1_node_108;
	to R5-12-47-1_node_258;
	current_limit 75;
	status CLOSED;
}

object fuse:1711 {
	name R5-12-47-1_fuse_50;
	phases CN;
	from R5-12-47-1_node_129;
	to R5-12-47-1_node_259;
	current_limit 60;
	status CLOSED;
}

object fuse:1712 {
	name R5-12-47-1_fuse_51;
	phases ABCN;
	from R5-12-47-1_node_172;
	to R5-12-47-1_node_260;
	current_limit 50;
	status CLOSED;
}


object line_configuration:29 {
	conductor_A underground_line_conductor:2;
	conductor_B underground_line_conductor:2;
	conductor_C underground_line_conductor:2;
	conductor_N underground_line_conductor:2;
	spacing line_spacing:11;
}

object line_configuration:30 {
	conductor_A overhead_line_conductor:3;
	conductor_B overhead_line_conductor:3;
	conductor_C overhead_line_conductor:3;
	conductor_N overhead_line_conductor:3;
	spacing line_spacing:12;
}

object line_configuration:31 {
	conductor_A overhead_line_conductor:3;
	conductor_B overhead_line_conductor:3;
	conductor_C overhead_line_conductor:3;
	conductor_N overhead_line_conductor:3;
	spacing line_spacing:13;
}

object line_configuration:32 {
	conductor_C overhead_line_conductor:3;
	conductor_N overhead_line_conductor:3;
	spacing line_spacing:14;
}

object line_configuration:33 {
	conductor_C overhead_line_conductor:3;
	conductor_N overhead_line_conductor:3;
	spacing line_spacing:15;
}

object line_configuration:34 {
	conductor_B overhead_line_conductor:3;
	conductor_N overhead_line_conductor:3;
	spacing line_spacing:16;
}

object line_configuration:35 {
	conductor_B overhead_line_conductor:3;
	conductor_C overhead_line_conductor:3;
	conductor_N overhead_line_conductor:3;
	spacing line_spacing:17;
}

object line_configuration:36 {
	conductor_A overhead_line_conductor:3;
	conductor_B overhead_line_conductor:3;
	conductor_C overhead_line_conductor:3;
	conductor_N overhead_line_conductor:3;
	spacing line_spacing:18;
}

object line_configuration:37 {
	conductor_A overhead_line_conductor:4;
	conductor_B overhead_line_conductor:4;
	conductor_C overhead_line_conductor:4;
	conductor_N overhead_line_conductor:4;
	spacing line_spacing:18;
}

object line_configuration:38 {
	conductor_A overhead_line_conductor:5;
	conductor_B overhead_line_conductor:5;
	conductor_C overhead_line_conductor:5;
	conductor_N overhead_line_conductor:5;
	spacing line_spacing:13;
}

object line_configuration:39 {
	conductor_C overhead_line_conductor:6;
	conductor_N overhead_line_conductor:6;
	spacing line_spacing:14;
}

object line_configuration:40 {
	conductor_A underground_line_conductor:7;
	conductor_B underground_line_conductor:7;
	conductor_C underground_line_conductor:7;
	conductor_N underground_line_conductor:7;
	spacing line_spacing:11;
}

object line_configuration:41 {
	conductor_A overhead_line_conductor:5;
	conductor_B overhead_line_conductor:5;
	conductor_C overhead_line_conductor:5;
	conductor_N overhead_line_conductor:5;
	spacing line_spacing:18;
}

object line_configuration:42 {
	conductor_A overhead_line_conductor:4;
	conductor_B overhead_line_conductor:4;
	conductor_C overhead_line_conductor:4;
	conductor_N overhead_line_conductor:4;
	spacing line_spacing:18;
}

object line_configuration:43 {
	conductor_A overhead_line_conductor:5;
	conductor_B overhead_line_conductor:5;
	conductor_C overhead_line_conductor:5;
	conductor_N overhead_line_conductor:5;
	spacing line_spacing:13;
}

object line_configuration:44 {
	conductor_A overhead_line_conductor:3;
	conductor_N overhead_line_conductor:3;
	spacing line_spacing:19;
}

object line_configuration:45 {
	conductor_A overhead_line_conductor:8;
	conductor_B overhead_line_conductor:8;
	conductor_C overhead_line_conductor:8;
	conductor_N overhead_line_conductor:8;
	spacing line_spacing:20;
}

object line_configuration:46 {
	conductor_A overhead_line_conductor:3;
	conductor_C overhead_line_conductor:3;
	conductor_N overhead_line_conductor:3;
	spacing line_spacing:21;
}

object line_configuration:47 {
	conductor_B overhead_line_conductor:6;
	conductor_N overhead_line_conductor:6;
	spacing line_spacing:16;
}

object line_configuration:48 {
	conductor_C underground_line_conductor:9;
	conductor_N underground_line_conductor:9;
	spacing line_spacing:22;
}

object line_configuration:49 {
	conductor_A overhead_line_conductor:3;
	conductor_C overhead_line_conductor:3;
	conductor_N overhead_line_conductor:3;
	spacing line_spacing:23;
}

object line_configuration:50 {
	conductor_B overhead_line_conductor:3;
	conductor_C overhead_line_conductor:3;
	conductor_N overhead_line_conductor:3;
	spacing line_spacing:24;
}

object line_configuration:51 {
	conductor_A overhead_line_conductor:3;
	conductor_B overhead_line_conductor:3;
	conductor_N overhead_line_conductor:3;
	spacing line_spacing:25;
}

object line_configuration:52 {
	conductor_A overhead_line_conductor:3;
	conductor_B overhead_line_conductor:3;
	conductor_N overhead_line_conductor:3;
	spacing line_spacing:26;
}

object line_configuration:53 {
	conductor_B overhead_line_conductor:5;
	conductor_N overhead_line_conductor:5;
	spacing line_spacing:27;
}

object line_configuration:54 {
	conductor_A underground_line_conductor:9;
	conductor_B underground_line_conductor:9;
	conductor_C underground_line_conductor:9;
	conductor_N underground_line_conductor:9;
	spacing line_spacing:11;
}

object line_configuration:55 {
	conductor_B underground_line_conductor:9;
	conductor_N underground_line_conductor:9;
	spacing line_spacing:28;
}

object line_configuration:56 {
	conductor_A underground_line_conductor:10;
	conductor_B underground_line_conductor:10;
	conductor_C underground_line_conductor:10;
	conductor_N underground_line_conductor:10;
	spacing line_spacing:11;
}


object line_spacing:11 {
	distance_AB 12.0 in;
	distance_BC 12.0 in;
	distance_AC 12.0 in;
	distance_AN 360.0 in;
	distance_BN 360.0 in;
	distance_CN 360.0 in;
}

object line_spacing:12 {
	distance_AB 53.19999999996 in;
	distance_BC 53.19999999996 in;
	distance_AC 53.19999999996 in;
	distance_AN 69.80000000004 in;
	distance_BN 69.80000000004 in;
	distance_CN 69.80000000004 in;
}

object line_spacing:13 {
	distance_AB 60.50000000004 in;
	distance_BC 60.50000000004 in;
	distance_AC 60.50000000004 in;
	distance_AN 84.6 in;
	distance_BN 84.6 in;
	distance_CN 84.6 in;
}

object line_spacing:14 {
	distance_CN 69.99999999996 in;
}

object line_spacing:15 {
	distance_CN 69.99999999996 in;
}

object line_spacing:16 {
	distance_BN 69.99999999996 in;
}

object line_spacing:17 {
	distance_BC 48.0 in;
	distance_BN 20.79999999996 in;
	distance_CN 20.79999999996 in;
}

object line_spacing:18 {
	distance_AB 65.90000000004 in;
	distance_BC 65.90000000004 in;
	distance_AC 65.90000000004 in;
	distance_AN 75.50000000004 in;
	distance_BN 75.50000000004 in;
	distance_CN 75.50000000004 in;
}

object line_spacing:19 {
	distance_AN 69.99999999996 in;
}

object line_spacing:20 {
	distance_AB 53.19999999996 in;
	distance_BC 53.19999999996 in;
	distance_AC 53.19999999996 in;
	distance_AN 80.49999999996 in;
	distance_BN 80.49999999996 in;
	distance_CN 80.49999999996 in;
}

object line_spacing:21 {
	distance_AC 111.99999999996 in;
	distance_AN 19.29999999996 in;
	distance_CN 19.29999999996 in;
}

object line_spacing:22 {
	distance_CN 360.0 in;
}

object line_spacing:23 {
	distance_AC 48.0 in;
	distance_AN 20.79999999996 in;
	distance_CN 20.79999999996 in;
}

object line_spacing:24 {
	distance_BC 111.99999999996 in;
	distance_BN 19.89999999996 in;
	distance_CN 19.89999999996 in;
}

object line_spacing:25 {
	distance_AB 48.0 in;
	distance_AN 20.79999999996 in;
	distance_BN 20.79999999996 in;
}

object line_spacing:26 {
	distance_AB 111.99999999996 in;
	distance_AN 19.89999999996 in;
	distance_BN 19.89999999996 in;
}

object line_spacing:27 {
	distance_BN 69.99999999996 in;
}

object line_spacing:28 {
	distance_BN 360.0 in;
}


object load:322 {
	name R5-12-47-1_load_1;
	parent R5-12-47-1_meter_1;
	phases ABCN;
	voltage_A 7967.43+0.0j;
	voltage_B -3983.72-6900j;
	voltage_C -3983.72+6900j;
	constant_power_A 559966.6667+330033.3333j;
	constant_power_B 559966.6667+330033.3333j;
	constant_power_C 559966.6667+330033.3333j;
	nominal_voltage 7967.43;
	load_class C;
	// object recorder {
		// property voltage_A,voltage_B,voltage_C;
		// interval 60;
		// limit 1440;
		// file "322.csv";
	// };
	object complex_assert{
		target voltage_A;
		once ONCE_TRUE;
		in '2000-01-01 00:01:00 EST';
		value +266.798-10.2866j;
		within 1;
	};
	object complex_assert{
		once ONCE_TRUE;
		in '2000-01-01 00:01:00 EST';
		target voltage_B;
		value -143.691-232.188j;
		within 1;
	};
	object complex_assert{
		once ONCE_TRUE;
		in '2000-01-01 00:01:00 EST';
		target voltage_C;
		value -125.566+232.74j;
		within 1;
	};
}

object load:323 {
	name R5-12-47-1_load_2;
	parent R5-12-47-1_meter_2;
	phases ABCN;
	voltage_A 7967.43+0.0j;
	voltage_B -3983.72-6900j;
	voltage_C -3983.72+6900j;
	constant_power_A 62400+26700j;
	constant_power_B 0+0j;
	constant_power_C 9600+17900j;
	nominal_voltage 7967.43;
	load_class C;
}

object load:324 {
	name R5-12-47-1_load_3;
	parent R5-12-47-1_meter_3;
	phases CN;
	voltage_C -3983.72+6900j;
	constant_power_C 81+46j;
	nominal_voltage 7967.43;
	load_class C;
}

object load:325 {
	name R5-12-47-1_load_4;
	parent R5-12-47-1_meter_4;
	phases ABCN;
	voltage_A 7967.43+0.0j;
	voltage_B -3983.72-6900j;
	voltage_C -3983.72+6900j;
	constant_power_A 13100+8100j;
	constant_power_B 13100+8100j;
	constant_power_C 13100+8100j;
	nominal_voltage 7967.43;
	load_class C;
}

object load:326 {
	name R5-12-47-1_load_5;
	parent R5-12-47-1_meter_5;
	phases ABCN;
	voltage_A 7967.43+0.0j;
	voltage_B -3983.72-6900j;
	voltage_C -3983.72+6900j;
	constant_power_A 42000+26000j;
	constant_power_B 42000+26000j;
	constant_power_C 42000+26000j;
	nominal_voltage 7967.43;
	load_class C;
}

object load:327 {
	name R5-12-47-1_load_6;
	parent R5-12-47-1_meter_6;
	phases ABCN;
	voltage_A 7967.43+0.0j;
	voltage_B -3983.72-6900j;
	voltage_C -3983.72+6900j;
	constant_power_A 26500+17500j;
	constant_power_B 25600+15900j;
	constant_power_C 27500+15900j;
	nominal_voltage 7967.43;
	load_class C;
}

object load:328 {
	name R5-12-47-1_load_7;
	parent R5-12-47-1_meter_7;
	phases ABCN;
	voltage_A 7967.43+0.0j;
	voltage_B -3983.72-6900j;
	voltage_C -3983.72+6900j;
	constant_power_A 0+0j;
	constant_power_B 0+0j;
	constant_power_C 2254+1288j;
	nominal_voltage 7967.43;
	load_class C;
}

object load:329 {
	name R5-12-47-1_load_8;
	parent R5-12-47-1_meter_8;
	phases ABCN;
	voltage_A 7967.43+0.0j;
	voltage_B -3983.72-6900j;
	voltage_C -3983.72+6900j;
	constant_power_A 56600+35100j;
	constant_power_B 56600+35100j;
	constant_power_C 56600+35100j;
	nominal_voltage 7967.43;
	load_class C;
}

object load:330 {
	name R5-12-47-1_load_9;
	parent R5-12-47-1_meter_9;
	phases ABCN;
	voltage_A 7967.43+0.0j;
	voltage_B -3983.72-6900j;
	voltage_C -3983.72+6900j;
	constant_power_A 38100+23600j;
	constant_power_B 38100+23600j;
	constant_power_C 38100+23600j;
	nominal_voltage 7967.43;
	load_class C;
}

object load:331 {
	name R5-12-47-1_load_10;
	parent R5-12-47-1_meter_10;
	phases ABCN;
	voltage_A 7967.43+0.0j;
	voltage_B -3983.72-6900j;
	voltage_C -3983.72+6900j;
	constant_power_A 8900+5500j;
	constant_power_B 0+0j;
	constant_power_C 0+0j;
	nominal_voltage 7967.43;
	load_class C;
}

object load:332 {
	name R5-12-47-1_load_11;
	parent R5-12-47-1_meter_11;
	phases ABCN;
	voltage_A 7967.43+0.0j;
	voltage_B -3983.72-6900j;
	voltage_C -3983.72+6900j;
	constant_power_A 37800+34200j;
	constant_power_B 27500+16200j;
	constant_power_C 48300+16300j;
	nominal_voltage 7967.43;
	load_class C;
}

object load:333 {
	name R5-12-47-1_load_12;
	parent R5-12-47-1_meter_12;
	phases ABCN;
	voltage_A 7967.43+0.0j;
	voltage_B -3983.72-6900j;
	voltage_C -3983.72+6900j;
	constant_power_A 30700+19000j;
	constant_power_B 30700+19000j;
	constant_power_C 30700+19000j;
	nominal_voltage 7967.43;
	load_class C;
}

object load:334 {
	name R5-12-47-1_load_13;
	parent R5-12-47-1_meter_13;
	phases ABCN;
	voltage_A 7967.43+0.0j;
	voltage_B -3983.72-6900j;
	voltage_C -3983.72+6900j;
	constant_power_A 3300+6200j;
	constant_power_B 29600+14200j;
	constant_power_C 0+0j;
	nominal_voltage 7967.43;
	load_class C;
}

object load:335 {
	name R5-12-47-1_load_14;
	parent R5-12-47-1_meter_14;
	phases CN;
	voltage_C -3983.72+6900j;
	constant_power_C 2500+1500j;
	nominal_voltage 7967.43;
	load_class C;
	// object recorder {
		// property voltage_A,voltage_B,voltage_C;
		// interval 60;
		// limit 1440;
		// file "335.csv";
	// };
	object complex_assert{
		target voltage_A;
		value +0+0j;
		within 3;
	};
	object complex_assert{
		target voltage_B;
		value +0+0j;
		within 3;
	};
	object complex_assert{
		target voltage_C;
		value +256.682+116.275d;
		within 3;
	};
}

object load:336 {
	name R5-12-47-1_load_15;
	parent R5-12-47-1_meter_15;
	phases ABCN;
	voltage_A 7967.43+0.0j;
	voltage_B -3983.72-6900j;
	voltage_C -3983.72+6900j;
	constant_power_A 17388+10458j;
	constant_power_B 0+0j;
	constant_power_C 0+0j;
	nominal_voltage 7967.43;
	load_class C;
}

object load:337 {
	name R5-12-47-1_load_16;
	parent R5-12-47-1_meter_16;
	phases ABCN;
	voltage_A 7967.43+0.0j;
	voltage_B -3983.72-6900j;
	voltage_C -3983.72+6900j;
	constant_power_A 28700+8900j;
	constant_power_B 20000+10000j;
	constant_power_C 7100+13200j;
	nominal_voltage 7967.43;
	load_class C;
}

object load:338 {
	name R5-12-47-1_load_17;
	parent R5-12-47-1_meter_17;
	phases ABCN;
	voltage_A 7967.43+0.0j;
	voltage_B -3983.72-6900j;
	voltage_C -3983.72+6900j;
	constant_power_A 760+382j;
	constant_power_B 0+0j;
	constant_power_C 0+0j;
	nominal_voltage 7967.43;
	load_class C;
}

object load:339 {
	name R5-12-47-1_load_18;
	parent R5-12-47-1_meter_18;
	phases ACN;
	voltage_A 7967.43+0.0j;
	voltage_C -3983.72+6900j;
	constant_power_A 821+398j;
	constant_power_C 100+50j;
	nominal_voltage 7967.43;
	load_class C;
}

object load:340 {
	name R5-12-47-1_load_19;
	parent R5-12-47-1_meter_19;
	phases CN;
	voltage_C -3983.72+6900j;
	constant_power_C 1252+610j;
	nominal_voltage 7967.43;
	load_class C;
}

object load:341 {
	name R5-12-47-1_load_20;
	parent R5-12-47-1_meter_20;
	phases AN;
	voltage_A 7967.43+0.0j;
	constant_power_A 638+313j;
	nominal_voltage 7967.43;
	load_class C;
}

object load:342 {
	name R5-12-47-1_load_21;
	parent R5-12-47-1_meter_21;
	phases ABCN;
	voltage_A 7967.43+0.0j;
	voltage_B -3983.72-6900j;
	voltage_C -3983.72+6900j;
	constant_power_A 0+0j;
	constant_power_B 2400+1900j;
	constant_power_C 700+0j;
	nominal_voltage 7967.43;
	load_class C;
}

object load:343 {
	name R5-12-47-1_load_22;
	parent R5-12-47-1_meter_22;
	phases ABCN;
	voltage_A 7967.43+0.0j;
	voltage_B -3983.72-6900j;
	voltage_C -3983.72+6900j;
	constant_power_A 17050+10350j;
	constant_power_B 3175+100j;
	constant_power_C 0+0j;
	nominal_voltage 7967.43;
	load_class C;
}

object load:344 {
	name R5-12-47-1_load_23;
	parent R5-12-47-1_meter_23;
	phases CN;
	voltage_C -3983.72+6900j;
	constant_power_C 2736+1359j;
	nominal_voltage 7967.43;
	load_class C;
}

object load:345 {
	name R5-12-47-1_load_24;
	parent R5-12-47-1_meter_24;
	phases CN;
	voltage_C -3983.72+6900j;
	constant_power_C 800+500j;
	nominal_voltage 7967.43;
	load_class C;
}

object load:346 {
	name R5-12-47-1_load_25;
	parent R5-12-47-1_meter_25;
	phases BN;
	voltage_B -3983.72-6900j;
	constant_power_B 7910+4200j;
	nominal_voltage 7967.43;
	load_class C;
}

object load:347 {
	name R5-12-47-1_load_26;
	parent R5-12-47-1_meter_26;
	phases BN;
	voltage_B -3983.72-6900j;
	constant_power_B 16733+8729j;
	nominal_voltage 7967.43;
	load_class C;
}

object load:348 {
	name R5-12-47-1_load_27;
	parent R5-12-47-1_meter_27;
	phases AN;
	voltage_A 7967.43+0.0j;
	constant_power_A 1214+593j;
	nominal_voltage 7967.43;
	load_class C;
}

object load:349 {
	name R5-12-47-1_load_28;
	parent R5-12-47-1_meter_28;
	phases ACN;
	voltage_A 7967.43+0.0j;
	voltage_C -3983.72+6900j;
	constant_power_A 242+11j;
	constant_power_C 3146+1936j;
	nominal_voltage 7967.43;
	load_class C;
}

object load:350 {
	name R5-12-47-1_load_29;
	parent R5-12-47-1_meter_29;
	phases ABN;
	voltage_A 7967.43+0.0j;
	voltage_B -3983.72-6900j;
	constant_power_A 1052+604j;
	constant_power_B 14+0j;
	nominal_voltage 7967.43;
	load_class C;
}

object load:351 {
	name R5-12-47-1_load_30;
	parent R5-12-47-1_meter_30;
	phases ABCN;
	voltage_A 7967.43+0.0j;
	voltage_B -3983.72-6900j;
	voltage_C -3983.72+6900j;
	constant_power_A 322+14j;
	constant_power_B 0+0j;
	constant_power_C 3080+1792j;
	nominal_voltage 7967.43;
	load_class C;
}

object load:352 {
	name R5-12-47-1_load_31;
	parent R5-12-47-1_meter_31;
	phases CN;
	voltage_C -3983.72+6900j;
	constant_power_C 444+238j;
	nominal_voltage 7967.43;
	load_class C;
}

object load:353 {
	name R5-12-47-1_load_32;
	parent R5-12-47-1_meter_32;
	phases ABCN;
	voltage_A 7967.43+0.0j;
	voltage_B -3983.72-6900j;
	voltage_C -3983.72+6900j;
	constant_power_A 0+0j;
	constant_power_B 945+535j;
	constant_power_C 0+0j;
	nominal_voltage 7967.43;
	load_class C;
}

object load:354 {
	name R5-12-47-1_load_33;
	parent R5-12-47-1_meter_33;
	phases ACN;
	voltage_A 7967.43+0.0j;
	voltage_C -3983.72+6900j;
	constant_power_A 0+0j;
	constant_power_C 52900+32800j;
	nominal_voltage 7967.43;
	load_class C;
}

object load:355 {
	name R5-12-47-1_load_34;
	parent R5-12-47-1_meter_34;
	phases ABCN;
	voltage_A 7967.43+0.0j;
	voltage_B -3983.72-6900j;
	voltage_C -3983.72+6900j;
	constant_power_A 0+0j;
	constant_power_B 1998+999j;
	constant_power_C 3330+1665j;
	nominal_voltage 7967.43;
	load_class C;
}

object load:356 {
	name R5-12-47-1_load_35;
	parent R5-12-47-1_meter_35;
	phases ABCN;
	voltage_A 7967.43+0.0j;
	voltage_B -3983.72-6900j;
	voltage_C -3983.72+6900j;
	constant_power_A 90900+56300j;
	constant_power_B 90900+56300j;
	constant_power_C 90900+56300j;
	nominal_voltage 7967.43;
	load_class C;
}

object load:357 {
	name R5-12-47-1_load_36;
	parent R5-12-47-1_meter_36;
	phases ABCN;
	voltage_A 7967.43+0.0j;
	voltage_B -3983.72-6900j;
	voltage_C -3983.72+6900j;
	constant_power_A 30900+19200j;
	constant_power_B 66500+20300j;
	constant_power_C 47700+50500j;
	nominal_voltage 7967.43;
	load_class C;
}

object load:358 {
	name R5-12-47-1_load_37;
	parent R5-12-47-1_meter_37;
	phases ABCN;
	voltage_A 7967.43+0.0j;
	voltage_B -3983.72-6900j;
	voltage_C -3983.72+6900j;
	constant_power_A 56546+25970j;
	constant_power_B 0+0j;
	constant_power_C 7252+13622j;
	nominal_voltage 7967.43;
	load_class C;
}

object load:359 {
	name R5-12-47-1_load_38;
	parent R5-12-47-1_meter_38;
	phases ABCN;
	voltage_A 7967.43+0.0j;
	voltage_B -3983.72-6900j;
	voltage_C -3983.72+6900j;
	constant_power_A 119800+74300j;
	constant_power_B 119800+74300j;
	constant_power_C 119800+74300j;
	nominal_voltage 7967.43;
	load_class C;
}

object load:360 {
	name R5-12-47-1_load_39;
	parent R5-12-47-1_meter_39;
	phases ABCN;
	voltage_A 7967.43+0.0j;
	voltage_B -3983.72-6900j;
	voltage_C -3983.72+6900j;
	constant_power_A 69600+80100j;
	constant_power_B 69600+80100j;
	constant_power_C 69600+80100j;
	nominal_voltage 7967.43;
	load_class C;
}

object load:361 {
	name R5-12-47-1_load_40;
	parent R5-12-47-1_meter_40;
	phases ABCN;
	voltage_A 7967.43+0.0j;
	voltage_B -3983.72-6900j;
	voltage_C -3983.72+6900j;
	constant_power_A 123400+76500j;
	constant_power_B 123400+76500j;
	constant_power_C 123400+76500j;
	nominal_voltage 7967.43;
	load_class C;
}

object load:362 {
	name R5-12-47-1_load_41;
	parent R5-12-47-1_meter_41;
	phases ABCN;
	voltage_A 7967.43+0.0j;
	voltage_B -3983.72-6900j;
	voltage_C -3983.72+6900j;
	constant_power_A 35200+1100j;
	constant_power_B 0+0j;
	constant_power_C 16700+31000j;
	nominal_voltage 7967.43;
	load_class C;
}

object load:363 {
	name R5-12-47-1_load_42;
	parent R5-12-47-1_meter_42;
	phases ABCN;
	voltage_A 7967.43+0.0j;
	voltage_B -3983.72-6900j;
	voltage_C -3983.72+6900j;
	constant_power_A 4100+7700j;
	constant_power_B 78900+43700j;