// $Id: R4-25.00-1.glm
// 24.9 kV feeder
//*********************************************
// validates voltages with FBS at selected load, node, meter, triplex_node, and
// triplex_meter objects
// also validates power_in and power_out at select transformers
// written by: alek332
clock{
	timezone EST+8EDT;
	timestamp '2000-01-01 0:00:00';
	stoptime '2000-01-01 1:00:00';
}

#set profiler=1
//*********************************************
// modules

module assert;
module tape;
module powerflow{
	solver_method FBS;
	default_maximum_voltage_error 1e-9;
};
//*********************************************

object regulator:1211 {
	name R4-25-00-1_reg_1;
	from R4-25-00-1_node_231;
	to R4-25-00-1_meter_2;
	phases ABCN;
	configuration regulator_configuration:1212;
	object recorder {
		 property tap_A,tap_B,tap_C,power_in_A.real,power_in_A.imag,power_in_B.real,power_in_B.imag,power_in_C.real,power_in_C.imag,power_in.real,power_in.imag;
		 limit 144;
		 interval 60;
		 file "R4-25.00-1_reg_output.csv";
	};
}


object regulator_configuration:1212 {
	name feeder_reg_cfg;
	Control OUTPUT_VOLTAGE;
	band_center 14435.0;
	band_width 120.3;
	connect_type WYE_WYE;
	time_delay 30;
	raise_taps 16;
	lower_taps 16;
	regulation 0.10;
	tap_pos_A 0;
	tap_pos_B 0;
	tap_pos_C 0;
}


object fuse:1178 {
	name R4-25-00-1_fuse_1;
	phases CN;
	from R4-25-00-1_node_45;
	to R4-25-00-1_node_94;
	current_limit 30;
	status CLOSED;
}

object fuse:1179 {
	name R4-25-00-1_fuse_2;
	phases CN;
	from R4-25-00-1_node_161;
	to R4-25-00-1_node_96;
	current_limit 30;
	status CLOSED;
}

object fuse:1180 {
	name R4-25-00-1_fuse_3;
	phases CN;
	from R4-25-00-1_node_162;
	to R4-25-00-1_node_77;
	current_limit 30;
	status CLOSED;
}

object fuse:1181 {
	name R4-25-00-1_fuse_4;
	phases CN;
	from R4-25-00-1_node_134;
	to R4-25-00-1_node_78;
	current_limit 40;
	status CLOSED;
}

object fuse:1182 {
	name R4-25-00-1_fuse_5;
	phases CN;
	from R4-25-00-1_node_134;
	to R4-25-00-1_node_79;
	current_limit 40;
	status CLOSED;
}

object fuse:1183 {
	name R4-25-00-1_fuse_6;
	phases CN;
	from R4-25-00-1_node_48;
	to R4-25-00-1_node_80;
	current_limit 40;
	status CLOSED;
}

object fuse:1184 {
	name R4-25-00-1_fuse_7;
	phases CN;
	from R4-25-00-1_node_53;
	to R4-25-00-1_node_81;
	current_limit 40;
	status CLOSED;
}

object fuse:1185 {
	name R4-25-00-1_fuse_8;
	phases CN;
	from R4-25-00-1_node_176;
	to R4-25-00-1_node_82;
	current_limit 40;
	status CLOSED;
}

object fuse:1186 {
	name R4-25-00-1_fuse_9;
	phases CN;
	from R4-25-00-1_node_49;
	to R4-25-00-1_node_83;
	current_limit 40;
	status CLOSED;
}

object fuse:1187 {
	name R4-25-00-1_fuse_10;
	phases CN;
	from R4-25-00-1_node_51;
	to R4-25-00-1_node_84;
	current_limit 40;
	status CLOSED;
}

object fuse:1188 {
	name R4-25-00-1_fuse_11;
	phases BN;
	from R4-25-00-1_node_23;
	to R4-25-00-1_node_85;
	current_limit 60;
	status CLOSED;
}

object fuse:1189 {
	name R4-25-00-1_fuse_12;
	phases CN;
	from R4-25-00-1_node_32;
	to R4-25-00-1_node_86;
	current_limit 60;
	status CLOSED;
}

object fuse:1190 {
	name R4-25-00-1_fuse_13;
	phases BN;
	from R4-25-00-1_node_156;
	to R4-25-00-1_node_87;
	current_limit 60;
	status CLOSED;
}

object fuse:1191 {
	name R4-25-00-1_fuse_14;
	phases AN;
	from R4-25-00-1_node_13;
	to R4-25-00-1_node_102;
	current_limit 60;
	status CLOSED;
}

object fuse:1192 {
	name R4-25-00-1_fuse_15;
	phases AN;
	from R4-25-00-1_node_13;
	to R4-25-00-1_node_88;
	current_limit 60;
	status CLOSED;
}

object fuse:1193 {
	name R4-25-00-1_fuse_16;
	phases BN;
	from R4-25-00-1_node_19;
	to R4-25-00-1_node_89;
	current_limit 60;
	status CLOSED;
}

object fuse:1194 {
	name R4-25-00-1_fuse_17;
	phases CN;
	from R4-25-00-1_node_151;
	to R4-25-00-1_node_90;
	current_limit 60;
	status CLOSED;
}

object fuse:1195 {
	name R4-25-00-1_fuse_18;
	phases AN;
	from R4-25-00-1_node_154;
	to R4-25-00-1_node_91;
	current_limit 60;
	status CLOSED;
}

object fuse:1196 {
	name R4-25-00-1_fuse_19;
	phases CN;
	from R4-25-00-1_node_15;
	to R4-25-00-1_node_92;
	current_limit 60;
	status CLOSED;
}

object fuse:1197 {
	name R4-25-00-1_fuse_20;
	phases CN;
	from R4-25-00-1_node_65;
	to R4-25-00-1_node_93;
	current_limit 40;
	status CLOSED;
}

object fuse:1198 {
	name R4-25-00-1_fuse_21;
	phases CN;
	from R4-25-00-1_node_38;
	to R4-25-00-1_node_97;
	current_limit 40;
	status CLOSED;
}

object fuse:1199 {
	name R4-25-00-1_fuse_22;
	phases CN;
	from R4-25-00-1_node_145;
	to R4-25-00-1_node_98;
	current_limit 30;
	status CLOSED;
}

object fuse:1200 {
	name R4-25-00-1_fuse_23;
	phases CN;
	from R4-25-00-1_node_50;
	to R4-25-00-1_node_99;
	current_limit 40;
	status CLOSED;
}

object fuse:1201 {
	name R4-25-00-1_fuse_24;
	phases CN;
	from R4-25-00-1_node_40;
	to R4-25-00-1_node_100;
	current_limit 30;
	status CLOSED;
}

object fuse:1202 {
	name R4-25-00-1_fuse_25;
	phases CN;
	from R4-25-00-1_node_190;
	to R4-25-00-1_node_101;
	current_limit 50;
	status CLOSED;
}

object fuse:1203 {
	name R4-25-00-1_fuse_26;
	phases CN;
	from R4-25-00-1_node_1;
	to R4-25-00-1_node_95;
	current_limit 80;
	status CLOSED;
}

object fuse:1204 {
	name R4-25-00-1_fuse_27;
	phases CN;
	from R4-25-00-1_node_46;
	to R4-25-00-1_node_103;
	current_limit 30;
	status CLOSED;
}

object fuse:1205 {
	name R4-25-00-1_fuse_28;
	phases CN;
	from R4-25-00-1_node_59;
	to R4-25-00-1_node_76;
	current_limit 30;
	status CLOSED;
}


object line_configuration:16 {
	conductor_B overhead_line_conductor:2;
	conductor_N overhead_line_conductor:2;
	spacing line_spacing:8;
}

object line_configuration:17 {
	conductor_C overhead_line_conductor:2;
	conductor_N overhead_line_conductor:2;
	spacing line_spacing:9;
}

object line_configuration:18 {
	conductor_A overhead_line_conductor:3;
	conductor_B overhead_line_conductor:3;
	conductor_C overhead_line_conductor:3;
	conductor_N overhead_line_conductor:3;
	spacing line_spacing:10;
}

object line_configuration:19 {
	conductor_B overhead_line_conductor:4;
	conductor_N overhead_line_conductor:4;
	spacing line_spacing:8;
}

object line_configuration:20 {
	conductor_A overhead_line_conductor:2;
	conductor_N overhead_line_conductor:2;
	spacing line_spacing:11;
}

object line_configuration:21 {
	conductor_C overhead_line_conductor:5;
	conductor_N overhead_line_conductor:5;
	spacing line_spacing:9;
}

object line_configuration:22 {
	conductor_C overhead_line_conductor:5;
	conductor_N overhead_line_conductor:5;
	spacing line_spacing:9;
}

object line_configuration:23 {
	conductor_A overhead_line_conductor:2;
	conductor_C overhead_line_conductor:2;
	conductor_N overhead_line_conductor:2;
	spacing line_spacing:12;
}

object line_configuration:24 {
	conductor_C underground_line_conductor:6;
	conductor_N underground_line_conductor:6;
	spacing line_spacing:13;
}

object line_configuration:25 {
	conductor_C underground_line_conductor:6;
	conductor_N underground_line_conductor:6;
	spacing line_spacing:9;
}

object line_configuration:26 {
	conductor_A underground_line_conductor:6;
	conductor_N underground_line_conductor:6;
	spacing line_spacing:14;
}

object line_configuration:27 {
	conductor_A overhead_line_conductor:4;
	conductor_N overhead_line_conductor:4;
	spacing line_spacing:11;
}

object line_configuration:28 {
	conductor_A overhead_line_conductor:3;
	conductor_B overhead_line_conductor:3;
	conductor_C overhead_line_conductor:3;
	conductor_N overhead_line_conductor:3;
	spacing line_spacing:15;
}


object line_spacing:8 {
	distance_BN 48.0 in;
}

object line_spacing:9 {
	distance_CN 48.0 in;
}

object line_spacing:10 {
	distance_AB 57.6 in;
	distance_BC 57.6 in;
	distance_AC 57.6 in;
	distance_AN 48.0 in;
	distance_BN 48.0 in;
	distance_CN 48.0 in;
}

object line_spacing:11 {
	distance_AN 48.0 in;
}

object line_spacing:12 {
	distance_AC 51.6 in;
	distance_AN 48.0 in;
	distance_CN 48.0 in;
}

object line_spacing:13 {
	distance_CN 0.0 in;
}

object line_spacing:14 {
	distance_AN 0.0 in;
}

object line_spacing:15 {
	distance_AB 48.0 in;
	distance_BC 48.0 in;
	distance_AC 48.0 in;
	distance_AN 48.0 in;
	distance_BN 48.0 in;
	distance_CN 48.0 in;
}


object load:259 {
	name R4-25-00-1_load_1;
	parent R4-25-00-1_meter_1;
	phases ACN;
	voltage_A 14376.02+0.0j;
	voltage_C -7188.01+12450j;
	constant_power_A 5000+1000j;
	constant_power_C 5000+1000j;
	nominal_voltage 14376.02;
	load_class C;
	// object recorder {
		// property voltage_A,voltage_B,voltage_C;
		// interval 60;
		// limit 1440;
		// file "259.csv";
	// };
	object complex_assert{
		target voltage_A;
		value +277.216-0.0414192d;
		within 1;
	};
	object complex_assert{
		target voltage_B;
		value +0+0j;
		within 1;
	};
	object complex_assert{
		target voltage_C;
		value +276.664+119.837d;
		within 1;
	};
}


object meter:680 {
	name R4-25-00-1_meter_1;
	phases ACN;
	voltage_A 14376.02+0.0j;
	voltage_C -7188.01+12450j;
	nominal_voltage 14376.02;
	// object recorder {
		// property voltage_A,voltage_B,voltage_C;
		// interval 60;
		// limit 1440;
		// file "680.csv";
	// };
	object complex_assert{
		target voltage_A;
		value +277.216-0.0414192d;
		within 1;
	};
	object complex_assert{
		target voltage_B;
		value +0+0j;
		within 1;
	};
	object complex_assert{
		target voltage_C;
		value +276.664+119.837d;
		within 1;
	};
}

// Meter at feeder
object meter:1210 {
	name R4-25-00-1_meter_2;
	phases ABCN;
	nominal_voltage 14376.02; 
	voltage_A 14376.02+0.0j;
	voltage_B -7188.01-12450j;
	voltage_C -7188.01+12450j;
	// object recorder {
		// property voltage_A,voltage_B,voltage_C;
		// interval 60;
		// limit 1440;
		// file "1210.csv";
	// };
	object complex_assert{
		target voltage_A;
		value +14376+0.000149413j;
		within 1;
	};
	object complex_assert{
		target voltage_B;
		value -7188.01-12450j;
		within 1;
	};
	object complex_assert{
		target voltage_C;
		value -7188.01+12450j;
		within 1;
	};
}


object node:29 {
	name R4-25-00-1_node_1;
	phases CN;
	voltage_C -7188.01+12450j;
	nominal_voltage 14376.02;
}

object node:30 {
	name R4-25-00-1_node_2;
	phases ABCN;
	voltage_A 14376.02+0.0j;
	voltage_B -7188.01-12450j;
	voltage_C -7188.01+12450j;
	nominal_voltage 14376.02;
}

object node:31 {
	name R4-25-00-1_node_3;
	phases ABCN;
	voltage_A 14376.02+0.0j;
	voltage_B -7188.01-12450j;
	voltage_C -7188.01+12450j;
	nominal_voltage 14376.02;
}

object node:32 {
	name R4-25-00-1_node_4;
	phases BN;
	voltage_B -7188.01-12450j;
	nominal_voltage 14376.02;
}

object node:33 {
	name R4-25-00-1_node_5;
	phases BN;
	voltage_B -7188.01-12450j;
	nominal_voltage 14376.02;
}

object node:34 {
	name R4-25-00-1_node_6;
	phases BN;
	voltage_B -7188.01-12450j;
	nominal_voltage 14376.02;
}

object node:35 {
	name R4-25-00-1_node_7;
	phases BN;
	voltage_B -7188.01-12450j;
	nominal_voltage 14376.02;
}

object node:36 {
	name R4-25-00-1_node_8;
	phases BN;
	voltage_B -7188.01-12450j;
	nominal_voltage 14376.02;
}

object node:37 {
	name R4-25-00-1_node_9;
	phases BN;
	voltage_B -7188.01-12450j;
	nominal_voltage 14376.02;
}

object node:38 {
	name R4-25-00-1_node_10;
	phases BN;
	voltage_B -7188.01-12450j;
	nominal_voltage 14376.02;
}

object node:39 {
	name R4-25-00-1_node_11;
	phases ABCN;
	voltage_A 14376.02+0.0j;
	voltage_B -7188.01-12450j;
	voltage_C -7188.01+12450j;
	nominal_voltage 14376.02;
}

object node:40 {
	name R4-25-00-1_node_12;
	phases ABCN;
	voltage_A 14376.02+0.0j;
	voltage_B -7188.01-12450j;
	voltage_C -7188.01+12450j;
	nominal_voltage 14376.02;
}

object node:41 {
	name R4-25-00-1_node_13;
	phases ABCN;
	voltage_A 14376.02+0.0j;
	voltage_B -7188.01-12450j;
	voltage_C -7188.01+12450j;
	nominal_voltage 14376.02;
}

object node:42 {
	name R4-25-00-1_node_14;
	phases CN;
	voltage_C -7188.01+12450j;
	nominal_voltage 14376.02;
}

object node:43 {
	name R4-25-00-1_node_15;
	phases ABCN;
	voltage_A 14376.02+0.0j;
	voltage_B -7188.01-12450j;
	voltage_C -7188.01+12450j;
	nominal_voltage 14376.02;
}

object node:44 {
	name R4-25-00-1_node_16;
	phases CN;
	voltage_C -7188.01+12450j;
	nominal_voltage 14376.02;
}

object node:45 {
	name R4-25-00-1_node_17;
	phases ABCN;
	voltage_A 14376.02+0.0j;
	voltage_B -7188.01-12450j;
	voltage_C -7188.01+12450j;
	nominal_voltage 14376.02;
}

object node:46 {
	name R4-25-00-1_node_18;
	phases ABCN;
	voltage_A 14376.02+0.0j;
	voltage_B -7188.01-12450j;
	voltage_C -7188.01+12450j;
	nominal_voltage 14376.02;
}

object node:47 {
	name R4-25-00-1_node_19;
	phases ABCN;
	voltage_A 14376.02+0.0j;
	voltage_B -7188.01-12450j;
	voltage_C -7188.01+12450j;
	nominal_voltage 14376.02;
}

object node:48 {
	name R4-25-00-1_node_20;
	phases ABCN;
	voltage_A 14376.02+0.0j;
	voltage_B -7188.01-12450j;
	voltage_C -7188.01+12450j;
	nominal_voltage 14376.02;
}

object node:49 {
	name R4-25-00-1_node_21;
	phases BN;
	voltage_B -7188.01-12450j;
	nominal_voltage 14376.02;
}

object node:50 {
	name R4-25-00-1_node_22;
	phases ABCN;
	voltage_A 14376.02+0.0j;
	voltage_B -7188.01-12450j;
	voltage_C -7188.01+12450j;
	nominal_voltage 14376.02;
}

object node:51 {
	name R4-25-00-1_node_23;
	phases ABCN;
	voltage_A 14376.02+0.0j;
	voltage_B -7188.01-12450j;
	voltage_C -7188.01+12450j;
	nominal_voltage 14376.02;
}

object node:52 {
	name R4-25-00-1_node_24;
	phases ABCN;
	voltage_A 14376.02+0.0j;
	voltage_B -7188.01-12450j;
	voltage_C -7188.01+12450j;
	nominal_voltage 14376.02;
}

object node:53 {
	name R4-25-00-1_node_25;
	phases CN;
	voltage_C -7188.01+12450j;
	nominal_voltage 14376.02;
}

object node:54 {
	name R4-25-00-1_node_26;
	phases ABCN;
	voltage_A 14376.02+0.0j;
	voltage_B -7188.01-12450j;
	voltage_C -7188.01+12450j;
	nominal_voltage 14376.02;
}

object node:55 {
	name R4-25-00-1_node_27;
	phases CN;
	voltage_C -7188.01+12450j;
	nominal_voltage 14376.02;
}

object node:56 {
	name R4-25-00-1_node_28;
	phases CN;
	voltage_C -7188.01+12450j;
	nominal_voltage 14376.02;
}

object node:57 {
	name R4-25-00-1_node_29;
	phases AN;
	voltage_A 14376.02+0.0j;
	nominal_voltage 14376.02;
}

object node:58 {
	name R4-25-00-1_node_30;
	phases ABCN;
	voltage_A 14376.02+0.0j;
	voltage_B -7188.01-12450j;
	voltage_C -7188.01+12450j;
	nominal_voltage 14376.02;
}

object node:59 {
	name R4-25-00-1_node_31;
	phases AN;
	voltage_A 14376.02+0.0j;
	nominal_voltage 14376.02;
}

object node:60 {
	name R4-25-00-1_node_32;
	phases ABCN;
	voltage_A 14376.02+0.0j;
	voltage_B -7188.01-12450j;
	voltage_C -7188.01+12450j;
	nominal_voltage 14376.02;
}

object node:61 {
	name R4-25-00-1_node_33;
	phases CN;
	voltage_C -7188.01+12450j;
	nominal_voltage 14376.02;
}

object node:62 {
	name R4-25-00-1_node_34;
	phases CN;
	voltage_C -7188.01+12450j;
	nominal_voltage 14376.02;
}

object node:63 {
	name R4-25-00-1_node_35;
	phases CN;
	voltage_C -7188.01+12450j;
	nominal_voltage 14376.02;
}

object node:64 {
	name R4-25-00-1_node_36;
	phases CN;
	voltage_C -7188.01+12450j;
	nominal_voltage 14376.02;
}

object node:65 {
	name R4-25-00-1_node_37;
	phases CN;
	voltage_C -7188.01+12450j;
	nominal_voltage 14376.02;
}

object node:66 {
	name R4-25-00-1_node_38;
	phases CN;
	voltage_C -7188.01+12450j;
	nominal_voltage 14376.02;
}

object node:67 {
	name R4-25-00-1_node_39;
	phases CN;
	voltage_C -7188.01+12450j;
	nominal_voltage 14376.02;
}

object node:68 {
	name R4-25-00-1_node_40;
	phases CN;
	voltage_C -7188.01+12450j;
	nominal_voltage 14376.02;
}

object node:69 {
	name R4-25-00-1_node_41;
	phases CN;
	voltage_C -7188.01+12450j;
	nominal_voltage 14376.02;
}

object node:70 {
	name R4-25-00-1_node_42;
	phases CN;
	voltage_C -7188.01+12450j;
	nominal_voltage 14376.02;
}

object node:71 {
	name R4-25-00-1_node_43;
	phases CN;
	voltage_C -7188.01+12450j;
	nominal_voltage 14376.02;
}

object node:72 {
	name R4-25-00-1_node_44;
	phases CN;
	voltage_C -7188.01+12450j;
	nominal_voltage 14376.02;
}

object node:73 {
	name R4-25-00-1_node_45;
	phases CN;
	voltage_C -7188.01+12450j;
	nominal_voltage 14376.02;
}

object node:74 {
	name R4-25-00-1_node_46;
	phases CN;
	voltage_C -7188.01+12450j;
	nominal_voltage 14376.02;
}

object node:75 {
	name R4-25-00-1_node_47;
	phases CN;
	voltage_C -7188.01+12450j;
	nominal_voltage 14376.02;
}

object node:76 {
	name R4-25-00-1_node_48;
	phases CN;
	voltage_C -7188.01+12450j;
	nominal_voltage 14376.02;
}

object node:77 {
	name R4-25-00-1_node_49;
	phases CN;
	voltage_C -7188.01+12450j;
	nominal_voltage 14376.02;
}

object node:78 {
	name R4-25-00-1_node_50;
	phases CN;
	voltage_C -7188.01+12450j;
	nominal_voltage 14376.02;
}

object node:79 {
	name R4-25-00-1_node_51;
	phases CN;
	voltage_C -7188.01+12450j;
	nominal_voltage 14376.02;
}

object node:80 {
	name R4-25-00-1_node_52;
	phases CN;
	voltage_C -7188.01+12450j;
	nominal_voltage 14376.02;
}

object node:81 {
	name R4-25-00-1_node_53;
	phases CN;
	voltage_C -7188.01+12450j;
	nominal_voltage 14376.02;
}

object node:82 {
	name R4-25-00-1_node_54;
	phases CN;
	voltage_C -7188.01+12450j;
	nominal_voltage 14376.02;
}

object node:83 {
	name R4-25-00-1_node_55;
	phases CN;
	voltage_C -7188.01+12450j;
	nominal_voltage 14376.02;
}

object node:84 {
	name R4-25-00-1_node_56;
	phases CN;
	voltage_C -7188.01+12450j;
	nominal_voltage 14376.02;
}

object node:85 {
	name R4-25-00-1_node_57;
	phases CN;
	voltage_C -7188.01+12450j;
	nominal_voltage 14376.02;
}

object node:86 {
	name R4-25-00-1_node_58;
	phases CN;
	voltage_C -7188.01+12450j;
	nominal_voltage 14376.02;
}

object node:87 {
	name R4-25-00-1_node_59;
	phases CN;
	voltage_C -7188.01+12450j;
	nominal_voltage 14376.02;
}

object node:88 {
	name R4-25-00-1_node_60;
	phases CN;
	voltage_C -7188.01+12450j;
	nominal_voltage 14376.02;
}

object node:89 {
	name R4-25-00-1_node_61;
	phases CN;
	voltage_C -7188.01+12450j;
	nominal_voltage 14376.02;
	// object recorder {
		// property voltage_A,voltage_B,voltage_C;
		// interval 60;
		// limit 1440;
		// file "89.csv";
	// };
	object complex_assert{
		target voltage_A;
		value +0+0j;
		within 1;
	};
	object complex_assert{
		target voltage_B;
		value +0+0j;
		within 1;
	};
	object complex_assert{
		target voltage_C;
		value +14334.1+119.699d;
		within 1;
	};
}

object node:90 {
	name R4-25-00-1_node_62;
	phases CN;
	voltage_C -7188.01+12450j;
	nominal_voltage 14376.02;
}

object node:91 {
	name R4-25-00-1_node_63;
	phases CN;
	voltage_C -7188.01+12450j;
	nominal_voltage 14376.02;
}

object node:92 {
	name R4-25-00-1_node_64;
	phases CN;
	voltage_C -7188.01+12450j;
	nominal_voltage 14376.02;
}

object node:93 {
	name R4-25-00-1_node_65;
	phases CN;
	voltage_C -7188.01+12450j;
	nominal_voltage 14376.02;
}

object node:94 {
	name R4-25-00-1_node_66;
	phases CN;
	voltage_C -7188.01+12450j;
	nominal_voltage 14376.02;
}

object node:95 {
	name R4-25-00-1_node_67;
	phases CN;
	voltage_C -7188.01+12450j;
	nominal_voltage 14376.02;
}

object node:96 {
	name R4-25-00-1_node_68;
	phases CN;
	voltage_C -7188.01+12450j;
	nominal_voltage 14376.02;
}

object node:97 {
	name R4-25-00-1_node_69;
	phases CN;
	voltage_C -7188.01+12450j;
	nominal_voltage 14376.02;
}

object node:98 {
	name R4-25-00-1_node_70;
	phases CN;
	voltage_C -7188.01+12450j;
	nominal_voltage 14376.02;
}

object node:99 {
	name R4-25-00-1_node_71;
	phases CN;
	voltage_C -7188.01+12450j;
	nominal_voltage 14376.02;
}

object node:100 {
	name R4-25-00-1_node_72;
	phases ABCN;
	voltage_A 14376.02+0.0j;
	voltage_B -7188.01-12450j;
	voltage_C -7188.01+12450j;
	nominal_voltage 14376.02;
}

object node:101 {
	name R4-25-00-1_node_73;
	phases ABCN;
	voltage_A 14376.02+0.0j;
	voltage_B -7188.01-12450j;
	voltage_C -7188.01+12450j;
	nominal_voltage 14376.02;
}

object node:102 {
	name R4-25-00-1_node_74;
	phases ABCN;
	voltage_A 14376.02+0.0j;
	voltage_B -7188.01-12450j;
	voltage_C -7188.01+12450j;
	nominal_voltage 14376.02;
}

object node:103 {
	name R4-25-00-1_node_75;
	phases ABCN;
	voltage_A 14376.02+0.0j;
	voltage_B -7188.01-12450j;
	voltage_C -7188.01+12450j;
	nominal_voltage 14376.02;
}

object node:104 {
	name R4-25-00-1_node_76;
	phases CN;
	voltage_C -7188.01+12450j;
	nominal_voltage 14376.02;
}

object node:105 {
	name R4-25-00-1_node_77;
	phases CN;
	voltage_C -7188.01+12450j;
	nominal_voltage 14376.02;
}

object node:106 {
	name R4-25-00-1_node_78;
	phases CN;
	voltage_C -7188.01+12450j;
	nominal_voltage 14376.02;
}

object node:107 {
	name R4-25-00-1_node_79;
	phases CN;
	voltage_C -7188.01+12450j;
	nominal_voltage 14376.02;
}

object node:108 {
	name R4-25-00-1_node_80;
	phases CN;
	voltage_C -7188.01+12450j;
	nominal_voltage 14376.02;
}

object node:109 {
	name R4-25-00-1_node_81;
	phases CN;
	voltage_C -7188.01+12450j;
	nominal_voltage 14376.02;
}

object node:110 {
	name R4-25-00-1_node_82;
	phases CN;
	voltage_C -7188.01+12450j;
	nominal_voltage 14376.02;
}

object node:111 {
	name R4-25-00-1_node_83;
	phases CN;
	voltage_C -7188.01+12450j;
	nominal_voltage 14376.02;
}

object node:112 {
	name R4-25-00-1_node_84;
	phases CN;
	voltage_C -7188.01+12450j;
	nominal_voltage 14376.02;
}

object node:113 {
	name R4-25-00-1_node_85;
	phases BN;
	voltage_B -7188.01-12450j;
	nominal_voltage 14376.02;
}

object node:114 {
	name R4-25-00-1_node_86;
	phases CN;
	voltage_C -7188.01+12450j;
	nominal_voltage 14376.02;
}

object node:115 {
	name R4-25-00-1_node_87;
	phases BN;
	voltage_B -7188.01-12450j;
	nominal_voltage 14376.02;
}

object node:116 {
	name R4-25-00-1_node_88;
	phases AN;
	voltage_A 14376.02+0.0j;
	nominal_voltage 14376.02;
}

object node:117 {
	name R4-25-00-1_node_89;
	phases BN;
	voltage_B -7188.01-12450j;
	nominal_voltage 14376.02;
}

object node:118 {
	name R4-25-00-1_node_90;
	phases CN;
	voltage_C -7188.01+12450j;
	nominal_voltage 14376.02;
}

object node:119 {
	name R4-25-00-1_node_91;
	phases AN;
	voltage_A 14376.02+0.0j;
	nominal_voltage 14376.02;
}

object node:120 {
	name R4-25-00-1_node_92;
	phases CN;
	voltage_C -7188.01+12450j;
	nominal_voltage 14376.02;
}

object node:121 {
	name R4-25-00-1_node_93;
	phases CN;
	voltage_C -7188.01+12450j;
	nominal_voltage 14376.02;
}

object node:122 {
	name R4-25-00-1_node_94;
	phases CN;
	voltage_C -7188.01+12450j;
	nominal_voltage 14376.02;
}

object node:123 {
	name R4-25-00-1_node_95;
	phases CN;
	voltage_C -7188.01+12450j;
	nominal_voltage 14376.02;
}

object node:124 {
	name R4-25-00-1_node_96;
	phases CN;
	voltage_C -7188.01+12450j;
	nominal_voltage 14376.02;
}

object node:125 {
	name R4-25-00-1_node_97;
	phases CN;
	voltage_C -7188.01+12450j;
	nominal_voltage 14376.02;
}

object node:126 {
	name R4-25-00-1_node_98;
	phases CN;
	voltage_C -7188.01+12450j;
	nominal_voltage 14376.02;
}

object node:127 {
	name R4-25-00-1_node_99;
	phases CN;
	voltage_C -7188.01+12450j;
	nominal_voltage 14376.02;
}

object node:128 {
	name R4-25-00-1_node_100;
	phases CN;
	voltage_C -7188.01+12450j;
	nominal_voltage 14376.02;
}

object node:129 {
	name R4-25-00-1_node_101;
	phases CN;
	voltage_C -7188.01+12450j;
	nominal_voltage 14376.02;
}

object node:130 {
	name R4-25-00-1_node_102;
	phases AN;
	voltage_A 14376.02+0.0j;
	nominal_voltage 14376.02;
}

object node:131 {
	name R4-25-00-1_node_103;
	phases CN;
	voltage_C -7188.01+12450j;
	nominal_voltage 14376.02;
	// object recorder {
		// property voltage_A,voltage_B,voltage_C;
		// interval 60;
		// limit 1440;
		// file "131.csv";
	// };
	object complex_assert{
		target voltage_A;
		value +0+0j;
		within 1;
	};
	object complex_assert{
		target voltage_B;
		value +0+0j;
		within 1;
	};
	object complex_assert{
		target voltage_C;
		value +14341.9+119.764d;
		within 1;
	};
}

object node:132 {
	name R4-25-00-1_node_104;
	phases CN;
	voltage_C -7188.01+12450j;
	nominal_voltage 14376.02;
}

object node:133 {
	name R4-25-00-1_node_105;
	phases CN;
	voltage_C -7188.01+12450j;
	nominal_voltage 14376.02;
}

object node:134 {
	name R4-25-00-1_node_106;
	phases CN;
	voltage_C -7188.01+12450j;
	nominal_voltage 14376.02;
}

object node:135 {
	name R4-25-00-1_node_107;
	phases BN;
	voltage_B -7188.01-12450j;
	nominal_voltage 14376.02;
}

object node:136 {
	name R4-25-00-1_node_108;
	phases BN;
	voltage_B -7188.01-12450j;
	nominal_voltage 14376.02;
}

object node:137 {
	name R4-25-00-1_node_109;
	phases CN;
	voltage_C -7188.01+12450j;
	nominal_voltage 14376.02;
}

object node:138 {
	name R4-25-00-1_node_110;
	phases BN;
	voltage_B -7188.01-12450j;
	nominal_voltage 14376.02;
}

object node:139 {
	name R4-25-00-1_node_111;
	phases AN;
	voltage_A 14376.02+0.0j;
	nominal_voltage 14376.02;
}

object node:140 {
	name R4-25-00-1_node_112;
	phases BN;
	voltage_B -7188.01-12450j;
	nominal_voltage 14376.02;
}

object node:141 {
	name R4-25-00-1_node_113;
	phases BN;
	voltage_B -7188.01-12450j;
	nominal_voltage 14376.02;
}

object node:142 {
	name R4-25-00-1_node_114;
	phases BN;
	voltage_B -7188.01-12450j;
	nominal_voltage 14376.02;
}

object node:143 {
	name R4-25-00-1_node_115;
	phases BN;
	voltage_B -7188.01-12450j;
	nominal_voltage 14376.02;
}

object node:144 {
	name R4-25-00-1_node_116;
	phases BN;
	voltage_B -7188.01-12450j;
	nominal_voltage 14376.02;
}

object node:145 {
	name R4-25-00-1_node_117;
	phases BN;
	voltage_B -7188.01-12450j;
	nominal_voltage 14376.02;
}

object node:146 {
	name R4-25-00-1_node_118;
	phases BN;
	voltage_B -7188.01-12450j;
	nominal_voltage 14376.02;
}

object node:147 {
	name R4-25-00-1_node_119;
	phases BN;
	voltage_B -7188.01-12450j;
	nominal_voltage 14376.02;
}

object node:148 {
	name R4-25-00-1_node_120;
	phases BN;
	voltage_B -7188.01-12450j;
	nominal_voltage 14376.02;
}

object node:149 {
	name R4-25-00-1_node_121;
	phases BN;
	voltage_B -7188.01-12450j;
	nominal_voltage 14376.02;
}

object node:150 {
	name R4-25-00-1_node_122;
	phases BN;
	voltage_B -7188.01-12450j;
	nominal_voltage 14376.02;
}

object node:151 {
	name R4-25-00-1_node_123;
	phases BN;
	voltage_B -7188.01-12450j;
	nominal_voltage 14376.02;
}

object node:152 {
	name R4-25-00-1_node_124;
	phases BN;
	voltage_B -7188.01-12450j;
	nominal_voltage 14376.02;
}

object node:153 {
	name R4-25-00-1_node_125;
	phases BN;
	voltage_B -7188.01-12450j;
	nominal_voltage 14376.02;
}

object node:154 {
	name R4-25-00-1_node_126;
	phases AN;
	voltage_A 14376.02+0.0j;
	nominal_voltage 14376.02;
}

object node:155 {
	name R4-25-00-1_node_127;
	phases ABCN;
	voltage_A 14376.02+0.0j;
	voltage_B -7188.01-12450j;
	voltage_C -7188.01+12450j;
	nominal_voltage 14376.02;
}

object node:156 {
	name R4-25-00-1_node_128;
	phases BN;
	voltage_B -7188.01-12450j;
	nominal_voltage 14376.02;
}

object node:157 {
	name R4-25-00-1_node_129;
	phases BN;
	voltage_B -7188.01-12450j;
	nominal_voltage 14376.02;
}

object node:158 {
	name R4-25-00-1_node_130;
	phases BN;
	voltage_B -7188.01-12450j;
	nominal_voltage 14376.02;
}

object node:159 {
	name R4-25-00-1_node_131;
	phases BN;
	voltage_B -7188.01-12450j;
	nominal_voltage 14376.02;
}

object node:160 {
	name R4-25-00-1_node_132;
	phases CN;
	voltage_C -7188.01+12450j;
	nominal_voltage 14376.02;
}

object node:161 {
	name R4-25-00-1_node_133;
	phases CN;
	voltage_C -7188.01+12450j;
	nominal_voltage 14376.02;
}

object node:162 {
	name R4-25-00-1_node_134;
	phases CN;
	voltage_C -7188.01+12450j;
	nominal_voltage 14376.02;
}

object node:163 {
	name R4-25-00-1_node_135;
	phases CN;
	voltage_C -7188.01+12450j;
	nominal_voltage 14376.02;
}

object node:164 {
	name R4-25-00-1_node_136;
	phases CN;
	voltage_C -7188.01+12450j;
	nominal_voltage 14376.02;
}

object node:165 {
	name R4-25-00-1_node_137;
	phases CN;
	voltage_C -7188.01+12450j;
	nominal_voltage 14376.02;
}

object node:166 {
	name R4-25-00-1_node_138;
	phases CN;
	voltage_C -7188.01+12450j;
	nominal_voltage 14376.02;
}

object node:167 {
	name R4-25-00-1_node_139;
	phases CN;
	voltage_C -7188.01+12450j;
	nominal_voltage 14376.02;
}

object node:168 {
	name R4-25-00-1_node_140;
	phases CN;
	voltage_C -7188.01+12450j;
	nominal_voltage 14376.02;
}

object node:169 {
	name R4-25-00-1_node_141;
	phases CN;
	voltage_C -7188.01+12450j;
	nominal_voltage 14376.02;
}

object node:170 {
	name R4-25-00-1_node_142;
	phases CN;
	voltage_C -7188.01+12450j;
	nominal_voltage 14376.02;
}

object node:171 {
	name R4-25-00-1_node_143;
	phases CN;
	voltage_C -7188.01+12450j;
	nominal_voltage 14376.02;
}

object node:172 {
	name R4-25-00-1_node_144;
	phases CN;
	voltage_C -7188.01+12450j;
	nominal_voltage 14376.02;
}

object node:173 {
	name R4-25-00-1_node_145;
	phases CN;
	voltage_C -7188.01+12450j;
	nominal_voltage 14376.02;
}

object node:174 {
	name R4-25-00-1_node_146;
	phases CN;
	voltage_C -7188.01+12450j;
	nominal_voltage 14376.02;
}

object node:175 {
	name R4-25-00-1_node_147;
	phases CN;
	voltage_C -7188.01+12450j;
	nominal_voltage 14376.02;
}

object node:176 {
	name R4-25-00-1_node_148;
	phases CN;
	voltage_C -7188.01+12450j;
	nominal_voltage 14376.02;
}

object node:177 {
	name R4-25-00-1_node_149;
	phases CN;
	voltage_C -7188.01+12450j;
	nominal_voltage 14376.02;
}

object node:178 {
	name R4-25-00-1_node_150;
	phases CN;
	voltage_C -7188.01+12450j;
	nominal_voltage 14376.02;
}

object node:179 {
	name R4-25-00-1_node_151;
	phases ACN;
	voltage_A 14376.02+0.0j;
	voltage_C -7188.01+12450j;
	nominal_voltage 14376.02;
}

object node:180 {
	name R4-25-00-1_node_152;
	phases BN;
	voltage_B -7188.01-12450j;
	nominal_voltage 14376.02;
}

object node:181 {
	name R4-25-00-1_node_153;
	phases AN;
	voltage_A 14376.02+0.0j;
	nominal_voltage 14376.02;
}

object node:182 {
	name R4-25-00-1_node_154;
	phases ABCN;
	voltage_A 14376.02+0.0j;
	voltage_B -7188.01-12450j;
	voltage_C -7188.01+12450j;
	nominal_voltage 14376.02;
}

object node:183 {
	name R4-25-00-1_node_155;
	phases CN;
	voltage_C -7188.01+12450j;
	nominal_voltage 14376.02;
}

object node:184 {
	name R4-25-00-1_node_156;
	phases ABCN;
	voltage_A 14376.02+0.0j;
	voltage_B -7188.01-12450j;
	voltage_C -7188.01+12450j;
	nominal_voltage 14376.02;
}

object node:185 {
	name R4-25-00-1_node_157;
	phases AN;
	voltage_A 14376.02+0.0j;
	nominal_voltage 14376.02;
}

object node:186 {
	name R4-25-00-1_node_158;
	phases CN;
	voltage_C -7188.01+12450j;
	nominal_voltage 14376.02;
}

object node:187 {
	name R4-25-00-1_node_159;
	phases CN;
	voltage_C -7188.01+12450j;
	nominal_voltage 14376.02;
}

object node:188 {
	name R4-25-00-1_node_160;
	phases CN;
	voltage_C -7188.01+12450j;