// $Id: R1-12.47-3.glm 
// 12.47 kV feeder
//*********************************************
// validates voltages with NR at selected load, node, meter, triplex_node, and
// triplex_meter objects
// also validates power_in,power_out, and power_losses at overhead_line
// objects

// created by: alek332
clock{
	timezone EST+8EDT;
	timestamp '2000-01-01 0:00:00';
	stoptime '2000-01-01 1:00:00';
}

#set profiler=1
//*********************************************
// modules

module tape;
module powerflow{
	solver_method NR;
	default_maximum_voltage_error 1e-9;
};
module assert;
//*********************************************

object regulator:222 {
	name R1-12-47-3_reg_1;
	from R1-12-47-3_node_53;
	to R1-12-47-3_meter_22;
	phases ABCN;
	configuration regulator_configuration:223;
	object recorder {
		 property tap_A,tap_B,tap_C,power_in_A.real,power_in_A.imag,power_in_B.real,power_in_B.imag,power_in_C.real,power_in_C.imag,power_in.real,power_in.imag;
		 limit 1440;
		 interval 60;
		 file "R1-12.27-3_reg_output.csv";
	};
}


object regulator_configuration:223 {
	name feeder_reg_cfg;
	Control OUTPUT_VOLTAGE;
	band_center 7200.0;
	band_width 120;
	connect_type WYE_WYE;
	time_delay 30;
	raise_taps 16;
	lower_taps 16;
	regulation 0.10;
	tap_pos_A 0;
	tap_pos_B 0;
	tap_pos_C 0;
}



object fuse:208 {
	name R1-12-47-3_fuse_1;
	phases AN;
	from R1-12-47-3_node_19;
	to R1-12-47-3_node_20;
	mean_replacement_time 1000;
	current_limit 10000;
	status CLOSED;
}

object fuse:209 {
	name R1-12-47-3_fuse_2;
	phases BCN;
	from R1-12-47-3_node_21;
	to R1-12-47-3_node_23;
	mean_replacement_time 1000;
	current_limit 100000;
	status CLOSED;
}

object fuse:210 {
	name R1-12-47-3_fuse_3;
	phases AN;
	from R1-12-47-3_node_27;
	to R1-12-47-3_node_28;
	mean_replacement_time 1000;
	current_limit 400000;
	status CLOSED;
}

object fuse:211 {
	name R1-12-47-3_fuse_4;
	phases AN;
	from R1-12-47-3_node_32;
	to R1-12-47-3_node_33;
	mean_replacement_time 1000;
	current_limit 100000;
	status CLOSED;
}

object fuse:212 {
	name R1-12-47-3_fuse_5;
	phases ABCN;
	from R1-12-47-3_node_32;
	to R1-12-47-3_node_35;
	mean_replacement_time 1000;
	current_limit 80000;
	status CLOSED;
}

object fuse:213 {
	name R1-12-47-3_fuse_6;
	phases BN;
	from R1-12-47-3_node_36;
	to R1-12-47-3_node_37;
	mean_replacement_time 1000;
	current_limit 400000;
	status CLOSED;
}

object fuse:214 {
	name R1-12-47-3_fuse_7;
	phases BN;
	from R1-12-47-3_node_36;
	to R1-12-47-3_node_40;
	mean_replacement_time 1000;
	current_limit 400000;
	status CLOSED;
}


object line_configuration:17 {
	conductor_A underground_line_conductor:2;
	conductor_B underground_line_conductor:2;
	conductor_C underground_line_conductor:2;
	conductor_N underground_line_conductor:2;
	spacing line_spacing:9;
}

object line_configuration:18 {
	conductor_A overhead_line_conductor:3;
	conductor_B overhead_line_conductor:3;
	conductor_C overhead_line_conductor:3;
	conductor_N overhead_line_conductor:3;
	spacing line_spacing:10;
}

object line_configuration:19 {
	conductor_A overhead_line_conductor:4;
	conductor_C overhead_line_conductor:4;
	conductor_N overhead_line_conductor:4;
	spacing line_spacing:11;
}

object line_configuration:20 {
	conductor_C overhead_line_conductor:5;
	conductor_N overhead_line_conductor:5;
	spacing line_spacing:12;
}

object line_configuration:21 {
	conductor_A overhead_line_conductor:4;
	conductor_B overhead_line_conductor:4;
	conductor_C overhead_line_conductor:4;
	conductor_N overhead_line_conductor:4;
	spacing line_spacing:10;
}

object line_configuration:22 {
	conductor_A overhead_line_conductor:5;
	conductor_C overhead_line_conductor:5;
	conductor_N overhead_line_conductor:5;
	spacing line_spacing:11;
}

object line_configuration:23 {
	conductor_C overhead_line_conductor:4;
	conductor_N overhead_line_conductor:4;
	spacing line_spacing:12;
}

object line_configuration:24 {
	conductor_A overhead_line_conductor:6;
	conductor_B overhead_line_conductor:6;
	conductor_C overhead_line_conductor:6;
	conductor_N overhead_line_conductor:6;
	spacing line_spacing:10;
}

object line_configuration:25 {
	conductor_A overhead_line_conductor:6;
	conductor_N overhead_line_conductor:6;
	spacing line_spacing:13;
}

object line_configuration:26 {
	conductor_A overhead_line_conductor:7;
	conductor_B overhead_line_conductor:7;
	conductor_C overhead_line_conductor:7;
	conductor_N overhead_line_conductor:7;
	spacing line_spacing:10;
}

object line_configuration:27 {
	conductor_A overhead_line_conductor:5;
	conductor_B overhead_line_conductor:5;
	conductor_C overhead_line_conductor:5;
	conductor_N overhead_line_conductor:5;
	spacing line_spacing:10;
}

object line_configuration:28 {
	conductor_B underground_line_conductor:8;
	conductor_C underground_line_conductor:8;
	conductor_N underground_line_conductor:8;
	spacing line_spacing:14;
}

object line_configuration:29 {
	conductor_B underground_line_conductor:8;
	conductor_N underground_line_conductor:8;
	spacing line_spacing:15;
}

object line_configuration:30 {
	conductor_B overhead_line_conductor:5;
	conductor_C overhead_line_conductor:5;
	conductor_N overhead_line_conductor:5;
	spacing line_spacing:16;
}

object line_configuration:31 {
	conductor_A overhead_line_conductor:4;
	conductor_N overhead_line_conductor:4;
	spacing line_spacing:13;
}

object line_configuration:32 {
	conductor_A overhead_line_conductor:5;
	conductor_N overhead_line_conductor:5;
	spacing line_spacing:13;
}

object line_configuration:33 {
	conductor_A underground_line_conductor:8;
	conductor_B underground_line_conductor:8;
	conductor_C underground_line_conductor:8;
	conductor_N underground_line_conductor:8;
	spacing line_spacing:9;
}


object line_spacing:9 {
	distance_AB 0.0 in;
	distance_BC 0.0 in;
	distance_AC 0.0 in;
	distance_AN 0.0 in;
	distance_BN 0.0 in;
	distance_CN 0.0 in;
}

object line_spacing:10 {
	distance_AB 57.6 in;
	distance_BC 57.6 in;
	distance_AC 57.6 in;
	distance_AN 84.0 in;
	distance_BN 84.0 in;
	distance_CN 84.0 in;
}

object line_spacing:11 {
	distance_AC 57.6 in;
	distance_AN 84.0 in;
	distance_CN 84.0 in;
}

object line_spacing:12 {
	distance_CN 84.0 in;
}

object line_spacing:13 {
	distance_AN 84.0 in;
}

object line_spacing:14 {
	distance_BC 0.0 in;
	distance_BN 0.0 in;
	distance_CN 0.0 in;
}

object line_spacing:15 {
	distance_BN 0.0 in;
}

object line_spacing:16 {
	distance_BC 57.6 in;
	distance_BN 84.0 in;
	distance_CN 84.0 in;
}


object load:86 {
	name R1-12-47-3_load_1;
	parent R1-12-47-3_meter_1;
	phases CN;
	voltage_C -3600+6235j;
	constant_power_C 54848.3315+1161.1672j;
	nominal_voltage 7200;
	load_class C;
	// object recorder {
		// property voltage_A,voltage_B,voltage_C;
		// interval 60;
		// limit 1440;
		// file "86.csv";
	// };
	object complex_assert{
		target voltage_A;
		value +0+0j;
		within 1;
	};
	object complex_assert{
		target voltage_B;
		value +0+0j;
		within 1;
	};
	object complex_assert{
		target voltage_C;
		value +274.785+118.071d;
		within 1;
	};
}

object load:87 {
	name R1-12-47-3_load_2;
	parent R1-12-47-3_meter_2;
	phases ABCN;
	voltage_A 7200+0.0j;
	voltage_B -3600-6235j;
	voltage_C -3600+6235j;
	constant_power_A 18397.9491+344.1439j;
	constant_power_B 5945.0578+187.089j;
	constant_power_C 16454.4994+348.3502j;
	nominal_voltage 7200;
	load_class C;
}

object load:88 {
	name R1-12-47-3_load_3;
	parent R1-12-47-3_meter_3;
	phases ACN;
	voltage_A 7200+0.0j;
	voltage_C -3600+6235j;
	constant_power_A 0+0j;
	constant_power_C 27424.1657+580.5836j;
	nominal_voltage 7200;
	load_class C;
}

object load:89 {
	name R1-12-47-3_load_4;
	parent R1-12-47-3_meter_4;
	phases CN;
	voltage_C -3600+6235j;
	constant_power_C 54848.3315+1161.1672j;
	nominal_voltage 7200;
	load_class C;
}

object load:90 {
	name R1-12-47-3_load_5;
	parent R1-12-47-3_meter_5;
	phases CN;
	voltage_C -3600+6235j;
	constant_power_C 54848.3315+1161.1672j;
	nominal_voltage 7200;
	load_class C;
}

object load:91 {
	name R1-12-47-3_load_6;
	parent R1-12-47-3_meter_6;
	phases ABCN;
	voltage_A 7200+0.0j;
	voltage_B -3600-6235j;
	voltage_C -3600+6235j;
	constant_power_A 0+0j;
	constant_power_B 0+0j;
	constant_power_C 82272.4972+1741.7508j;
	nominal_voltage 7200;
	load_class C;
}

object load:92 {
	name R1-12-47-3_load_7;
	parent R1-12-47-3_meter_7;
	phases AN;
	voltage_A 7200+0.0j;
	constant_power_A 42928.5478+803.0025j;
	nominal_voltage 7200;
	load_class C;
}

object load:93 {
	name R1-12-47-3_load_8;
	parent R1-12-47-3_meter_8;
	phases ABCN;
	voltage_A 7200+0.0j;
	voltage_B -3600-6235j;
	voltage_C -3600+6235j;
	constant_power_A 30663.2485+573.5732j;
	constant_power_B 9908.4297+311.8149j;
	constant_power_C 27424.1657+580.5836j;
	nominal_voltage 7200;
	load_class C;
}

object load:94 {
	name R1-12-47-3_load_9;
	parent R1-12-47-3_meter_9;
	phases BN;
	voltage_B -3600-6235j;
	constant_power_B 29725.289+935.4448j;
	nominal_voltage 7200;
	load_class C;
}

object load:95 {
	name R1-12-47-3_load_10;
	parent R1-12-47-3_meter_10;
	phases ABCN;
	voltage_A 7200+0.0j;
	voltage_B -3600-6235j;
	voltage_C -3600+6235j;
	constant_power_A 0+0j;
	constant_power_B 9908.4297+311.8149j;
	constant_power_C 54848.3315+1161.1672j;
	nominal_voltage 7200;
	load_class C;
}

object load:96 {
	name R1-12-47-3_load_11;
	parent R1-12-47-3_meter_11;
	phases AN;
	voltage_A 7200+0.0j;
	constant_power_A 110387.6944+2064.8636j;
	nominal_voltage 7200;
	load_class C;
}

object load:97 {
	name R1-12-47-3_load_12;
	parent R1-12-47-3_meter_12;
	phases AN;
	voltage_A 7200+0.0j;
	constant_power_A 30663.2485+573.5732j;
	nominal_voltage 7200;
	load_class C;
}

object load:98 {
	name R1-12-47-3_load_13;
	parent R1-12-47-3_meter_13;
	phases AN;
	voltage_A 7200+0.0j;
	constant_power_A 30663.2485+573.5732j;
	nominal_voltage 7200;
	load_class C;
}

object load:99 {
	name R1-12-47-3_load_14;
	parent R1-12-47-3_meter_14;
	phases AN;
	voltage_A 7200+0.0j;
	constant_power_A 30663.2485+573.5732j;
	nominal_voltage 7200;
	load_class C;
}

object load:100 {
	name R1-12-47-3_load_15;
	parent R1-12-47-3_meter_15;
	phases BN;
	voltage_B -3600-6235j;
	constant_power_B 19800+600j;
	nominal_voltage 7200;
	load_class C;
	// object recorder {
		// property voltage_A,voltage_B,voltage_C;
		// interval 60;
		// limit 1440;
		// file "100.csv";
	// };
	object complex_assert{
		target voltage_A;
		value +0+0j;
		within 1;
	};
	object complex_assert{
		target voltage_B;
		value -141.403-234.952j;
		within 1;
	};
	object complex_assert{
		target voltage_C;
		value +0+0j;
		within 1;
	};
}

object load:101 {
	name R1-12-47-3_load_16;
	parent R1-12-47-3_meter_16;
	phases BN;
	voltage_B -3600-6235j;
	constant_power_B 66200+2100j;
	nominal_voltage 7200;
	load_class C;
}

object load:102 {
	name R1-12-47-3_load_17;
	parent R1-12-47-3_meter_17;
	phases BN;
	voltage_B -3600-6235j;
	constant_power_B 19800+600j;
	nominal_voltage 7200;
	load_class C;
}

object load:103 {
	name R1-12-47-3_load_18;
	parent R1-12-47-3_meter_18;
	phases ABCN;
	voltage_A 7200+0.0j;
	voltage_B -3600-6235j;
	voltage_C -3600+6235j;
	constant_power_A 61326.4969+1147.1465j;
	constant_power_B 19816.8593+623.6299j;
	constant_power_C 54848.3315+1161.1672j;
	nominal_voltage 7200;
	load_class C;
}

object load:104 {
	name R1-12-47-3_load_19;
	parent R1-12-47-3_meter_19;
	phases AN;
	voltage_A 7200+0.0j;
	constant_power_A 30663.2485+573.5732j;
	nominal_voltage 7200;
	load_class C;
}

object load:105 {
	name R1-12-47-3_load_20;
	parent R1-12-47-3_meter_20;
	phases ABCN;
	voltage_A 7200+0.0j;
	voltage_B -3600-6235j;
	voltage_C -3600+6235j;
	constant_power_A 45994.8727+860.3598j;
	constant_power_B 14862.6445+467.7224j;
	constant_power_C 41136.2486+870.8754j;
	nominal_voltage 7200;
	load_class C;
}

object load:106 {
	name R1-12-47-3_load_21;
	parent R1-12-47-3_meter_21;
	phases ABCN;
	voltage_A 7200+0.0j;
	voltage_B -3600-6235j;
	voltage_C -3600+6235j;
	constant_power_A 30663.2485+573.5732j;
	constant_power_B 9908.4297+311.8149j;
	constant_power_C 27424.1657+580.5836j;
	nominal_voltage 7200;
	load_class C;
}


object meter:110 {
	name R1-12-47-3_meter_1;
	phases CN;
	voltage_C -3600+6235j;
	nominal_voltage 7200;
	// object recorder {
		// property voltage_A,voltage_B,voltage_C;
		// interval 60;
		// limit 1440;
		// file "110.csv";
	// };
	object complex_assert{
		target voltage_A;
		value +0+0j;
		within 1;
	};
	object complex_assert{
		target voltage_B;
		value +0+0j;
		within 1;
	};
	object complex_assert{
		target voltage_C;
		value +274.785+118.071d;
		within 1;
	};
}

object meter:111 {
	name R1-12-47-3_meter_2;
	phases ABCN;
	voltage_A 7200+0.0j;
	voltage_B -3600-6235j;
	voltage_C -3600+6235j;
	nominal_voltage 7200;
}

object meter:112 {
	name R1-12-47-3_meter_3;
	phases ACN;
	voltage_A 7200+0.0j;
	voltage_C -3600+6235j;
	nominal_voltage 7200;
}

object meter:113 {
	name R1-12-47-3_meter_4;
	phases CN;
	voltage_C -3600+6235j;
	nominal_voltage 7200;
}

object meter:114 {
	name R1-12-47-3_meter_5;
	phases CN;
	voltage_C -3600+6235j;
	nominal_voltage 7200;
}

object meter:115 {
	name R1-12-47-3_meter_6;
	phases ABCN;
	voltage_A 7200+0.0j;
	voltage_B -3600-6235j;
	voltage_C -3600+6235j;
	nominal_voltage 7200;
}

object meter:116 {
	name R1-12-47-3_meter_7;
	phases AN;
	voltage_A 7200+0.0j;
	nominal_voltage 7200;
}

object meter:117 {
	name R1-12-47-3_meter_8;
	phases ABCN;
	voltage_A 7200+0.0j;
	voltage_B -3600-6235j;
	voltage_C -3600+6235j;
	nominal_voltage 7200;
}

object meter:118 {
	name R1-12-47-3_meter_9;
	phases BN;
	voltage_B -3600-6235j;
	nominal_voltage 7200;
}

object meter:119 {
	name R1-12-47-3_meter_10;
	phases ABCN;
	voltage_A 7200+0.0j;
	voltage_B -3600-6235j;
	voltage_C -3600+6235j;
	nominal_voltage 7200;
}

object meter:120 {
	name R1-12-47-3_meter_11;
	phases AN;
	voltage_A 7200+0.0j;
	nominal_voltage 7200;
}

object meter:121 {
	name R1-12-47-3_meter_12;
	phases AN;
	voltage_A 7200+0.0j;
	nominal_voltage 7200;
}

object meter:122 {
	name R1-12-47-3_meter_13;
	phases AN;
	voltage_A 7200+0.0j;
	nominal_voltage 7200;
}

object meter:123 {
	name R1-12-47-3_meter_14;
	phases AN;
	voltage_A 7200+0.0j;
	nominal_voltage 7200;
}

object meter:124 {
	name R1-12-47-3_meter_15;
	phases BN;
	voltage_B -3600-6235j;
	nominal_voltage 7200;
}

object meter:125 {
	name R1-12-47-3_meter_16;
	phases BN;
	voltage_B -3600-6235j;
	nominal_voltage 7200;
}

object meter:126 {
	name R1-12-47-3_meter_17;
	phases BN;
	voltage_B -3600-6235j;
	nominal_voltage 7200;
}

object meter:127 {
	name R1-12-47-3_meter_18;
	phases ABCN;
	voltage_A 7200+0.0j;
	voltage_B -3600-6235j;
	voltage_C -3600+6235j;
	nominal_voltage 7200;
}

object meter:128 {
	name R1-12-47-3_meter_19;
	phases AN;
	voltage_A 7200+0.0j;
	nominal_voltage 7200;
}

object meter:129 {
	name R1-12-47-3_meter_20;
	phases ABCN;
	voltage_A 7200+0.0j;
	voltage_B -3600-6235j;
	voltage_C -3600+6235j;
	nominal_voltage 7200;
}

object meter:130 {
	name R1-12-47-3_meter_21;
	phases ABCN;
	voltage_A 7200+0.0j;
	voltage_B -3600-6235j;
	voltage_C -3600+6235j;
	nominal_voltage 7200;
	// object recorder {
		// property voltage_A,voltage_B,voltage_C;
		// interval 60;
		// limit 1440;
		// file "130.csv";
	// };
	object complex_assert{
		target voltage_A;
		value +273.809-4.01281j;
		within 1;
	};
	object complex_assert{
		target voltage_B;
		value -139.467-236.952j;
		within 1;
	};
	object complex_assert{
		target voltage_C;
		value -134.842+239.586j;
		within 1;
	};
}

// Meter at feeder
object meter:221 {
	name R1-12-47-3_meter_22;
	phases ABCN;
	nominal_voltage 7200; 
	voltage_A 7200+0.0j;
	voltage_B -3600-6235j;
	voltage_C -3600+6235j;
	// object recorder {
		// property voltage_A,voltage_B,voltage_C;
		// interval 60;
		// limit 1440;
		// file "221.csv";
	// };
 object complex_assert{
		target voltage_A;
		value +7199.99+0.00036507j;
		within 1;
	};
	object complex_assert{
		target voltage_B;
		value -3600-6235j;
		within 1;
	};
	object complex_assert{
		target voltage_C;
		value -3600+6234.99j;
		within 1;
	};
}


object node:34 {
	name R1-12-47-3_node_1;
	phases ABCN;
	voltage_A 7200+0.0j;
	voltage_B -3600-6235j;
	voltage_C -3600+6235j;
	nominal_voltage 7200;
	// object recorder {
		// property voltage_A,voltage_B,voltage_C;
		// interval 60;
		// limit 1440;
		// file "node_34.csv";
	// };
 object complex_assert{
		target voltage_A;
		value +7134.24-41.4401j;
		within 1;
	};
	object complex_assert{
		target voltage_B;
		value -3609.81-6170.13j;
		within 1;
	};
	object complex_assert{
		target voltage_C;
		value -3559.55+6213.46j;
		within 1;
	};
}

object node:35 {
	name R1-12-47-3_node_2;
	phases ABCN;
	voltage_A 7200+0.0j;
	voltage_B -3600-6235j;
	voltage_C -3600+6235j;
	nominal_voltage 7200;
}

object node:36 {
	name R1-12-47-3_node_3;
	phases ABCN;
	voltage_A 7200+0.0j;
	voltage_B -3600-6235j;
	voltage_C -3600+6235j;
	nominal_voltage 7200;
}

object node:37 {
	name R1-12-47-3_node_4;
	phases ABCN;
	voltage_A 7200+0.0j;
	voltage_B -3600-6235j;
	voltage_C -3600+6235j;
	nominal_voltage 7200;
}

object node:38 {
	name R1-12-47-3_node_5;
	phases ACN;
	voltage_A 7200+0.0j;
	voltage_C -3600+6235j;
	nominal_voltage 7200;
}

object node:39 {
	name R1-12-47-3_node_6;
	phases CN;
	voltage_C -3600+6235j;
	nominal_voltage 7200;
}

object node:40 {
	name R1-12-47-3_node_7;
	phases ABCN;
	voltage_A 7200+0.0j;
	voltage_B -3600-6235j;
	voltage_C -3600+6235j;
	nominal_voltage 7200;
}

object node:41 {
	name R1-12-47-3_node_8;
	phases ABCN;
	voltage_A 7200+0.0j;
	voltage_B -3600-6235j;
	voltage_C -3600+6235j;
	nominal_voltage 7200;
}

object node:42 {
	name R1-12-47-3_node_9;
	phases ABCN;
	voltage_A 7200+0.0j;
	voltage_B -3600-6235j;
	voltage_C -3600+6235j;
	nominal_voltage 7200;
}

object node:43 {
	name R1-12-47-3_node_10;
	phases ABCN;
	voltage_A 7200+0.0j;
	voltage_B -3600-6235j;
	voltage_C -3600+6235j;
	nominal_voltage 7200;
}

object node:44 {
	name R1-12-47-3_node_11;
	phases ACN;
	voltage_A 7200+0.0j;
	voltage_C -3600+6235j;
	nominal_voltage 7200;
}

object node:45 {
	name R1-12-47-3_node_12;
	phases CN;
	voltage_C -3600+6235j;
	nominal_voltage 7200;
}

object node:46 {
	name R1-12-47-3_node_13;
	phases ACN;
	voltage_A 7200+0.0j;
	voltage_C -3600+6235j;
	nominal_voltage 7200;
}

object node:47 {
	name R1-12-47-3_node_14;
	phases CN;
	voltage_C -3600+6235j;
	nominal_voltage 7200;
}

object node:48 {
	name R1-12-47-3_node_15;
	phases ABCN;
	voltage_A 7200+0.0j;
	voltage_B -3600-6235j;
	voltage_C -3600+6235j;
	nominal_voltage 7200;
}

object node:49 {
	name R1-12-47-3_node_16;
	phases ABCN;
	voltage_A 7200+0.0j;
	voltage_B -3600-6235j;
	voltage_C -3600+6235j;
	nominal_voltage 7200;
}

object node:50 {
	name R1-12-47-3_node_17;
	phases ABCN;
	voltage_A 7200+0.0j;
	voltage_B -3600-6235j;
	voltage_C -3600+6235j;
	nominal_voltage 7200;
}

object node:51 {
	name R1-12-47-3_node_18;
	phases ABCN;
	voltage_A 7200+0.0j;
	voltage_B -3600-6235j;
	voltage_C -3600+6235j;
	nominal_voltage 7200;
	// object recorder {
		// property voltage_A,voltage_B,voltage_C;
		// interval 51;
		// limit 1440;
		// file "51.csv";
	// };
 object complex_assert{
		target voltage_A;
		value +7151.41-34.9036j;
		within 1;
	};
	object complex_assert{
		target voltage_B;
		value -3607.34-6188.04j;
		within 1;
	};
	object complex_assert{
		target voltage_C;
		value -3562.95+6217.09j;
		within 1;
	};
}

object node:52 {
	name R1-12-47-3_node_19;
	phases ABCN;
	voltage_A 7200+0.0j;
	voltage_B -3600-6235j;
	voltage_C -3600+6235j;
	nominal_voltage 7200;
	// object recorder {
		// property voltage_A,voltage_B,voltage_C;
		// interval 52;
		// limit 1440;
		// file "52.csv";
	// };
 object complex_assert{
		target voltage_A;
		value +7149.61-35.8921j;
		within 1;
	};
	object complex_assert{
		target voltage_B;
		value -3607.48-6187.37j;
		within 1;
	};
	object complex_assert{
		target voltage_C;
		value -3562.62+6216.46j;
		within 1;
	};
}

object node:53 {
	name R1-12-47-3_node_20;
	phases AN;
	voltage_A 7200+0.0j;
	nominal_voltage 7200;
}

object node:54 {
	name R1-12-47-3_node_21;
	phases ABCN;
	voltage_A 7200+0.0j;
	voltage_B -3600-6235j;
	voltage_C -3600+6235j;
	nominal_voltage 7200;
}

object node:55 {
	name R1-12-47-3_node_22;
	phases ABCN;
	voltage_A 7200+0.0j;
	voltage_B -3600-6235j;
	voltage_C -3600+6235j;
	nominal_voltage 7200;
}

object node:56 {
	name R1-12-47-3_node_23;
	phases BCN;
	voltage_B -3600-6235j;
	voltage_C -3600+6235j;
	nominal_voltage 7200;
}

object node:57 {
	name R1-12-47-3_node_24;
	phases BN;
	voltage_B -3600-6235j;
	nominal_voltage 7200;
}

object node:58 {
	name R1-12-47-3_node_25;
	phases BCN;
	voltage_B -3600-6235j;
	voltage_C -3600+6235j;
	nominal_voltage 7200;
}

object node:59 {
	name R1-12-47-3_node_26;
	phases BCN;
	voltage_B -3600-6235j;
	voltage_C -3600+6235j;
	nominal_voltage 7200;
}

object node:60 {
	name R1-12-47-3_node_27;
	phases ABCN;
	voltage_A 7200+0.0j;
	voltage_B -3600-6235j;
	voltage_C -3600+6235j;
	nominal_voltage 7200;
}

object node:61 {
	name R1-12-47-3_node_28;
	phases AN;
	voltage_A 7200+0.0j;
	nominal_voltage 7200;
}

object node:62 {
	name R1-12-47-3_node_29;
	phases AN;
	voltage_A 7200+0.0j;
	nominal_voltage 7200;
}

object node:63 {
	name R1-12-47-3_node_30;
	phases AN;
	voltage_A 7200+0.0j;
	nominal_voltage 7200;
}

object node:64 {
	name R1-12-47-3_node_31;
	phases ABCN;
	voltage_A 7200+0.0j;
	voltage_B -3600-6235j;
	voltage_C -3600+6235j;
	nominal_voltage 7200;
}

object node:65 {
	name R1-12-47-3_node_32;
	phases ABCN;
	voltage_A 7200+0.0j;
	voltage_B -3600-6235j;
	voltage_C -3600+6235j;
	nominal_voltage 7200;
}

object node:66 {
	name R1-12-47-3_node_33;
	phases AN;
	voltage_A 7200+0.0j;
	nominal_voltage 7200;
}

object node:67 {
	name R1-12-47-3_node_34;
	phases ABCN;
	voltage_A 7200+0.0j;
	voltage_B -3600-6235j;
	voltage_C -3600+6235j;
	nominal_voltage 7200;
}

object node:68 {
	name R1-12-47-3_node_35;
	phases ABCN;
	voltage_A 7200+0.0j;
	voltage_B -3600-6235j;
	voltage_C -3600+6235j;
	nominal_voltage 7200;
}

object node:69 {
	name R1-12-47-3_node_36;
	phases ABCN;
	voltage_A 7200+0.0j;
	voltage_B -3600-6235j;
	voltage_C -3600+6235j;
	nominal_voltage 7200;
}

object node:70 {
	name R1-12-47-3_node_37;
	phases BN;
	voltage_B -3600-6235j;
	nominal_voltage 7200;
}

object node:71 {
	name R1-12-47-3_node_38;
	phases BN;
	voltage_B -3600-6235j;
	nominal_voltage 7200;
}

object node:72 {
	name R1-12-47-3_node_39;
	phases BN;
	voltage_B -3600-6235j;
	nominal_voltage 7200;
}

object node:73 {
	name R1-12-47-3_node_40;
	phases BN;
	voltage_B -3600-6235j;
	nominal_voltage 7200;
}

object node:74 {
	name R1-12-47-3_node_41;
	phases ABCN;
	voltage_A 7200+0.0j;
	voltage_B -3600-6235j;
	voltage_C -3600+6235j;
	nominal_voltage 7200;
}

object node:75 {
	name R1-12-47-3_node_42;
	phases ABCN;
	voltage_A 7200+0.0j;
	voltage_B -3600-6235j;
	voltage_C -3600+6235j;
	nominal_voltage 7200;
}

object node:76 {
	name R1-12-47-3_node_43;
	phases ABCN;
	voltage_A 7200+0.0j;
	voltage_B -3600-6235j;
	voltage_C -3600+6235j;
	nominal_voltage 7200;
}

object node:77 {
	name R1-12-47-3_node_44;
	phases AN;
	voltage_A 7200+0.0j;
	nominal_voltage 7200;
}

object node:78 {
	name R1-12-47-3_node_45;
	phases ABCN;
	voltage_A 7200+0.0j;
	voltage_B -3600-6235j;
	voltage_C -3600+6235j;
	nominal_voltage 7200;
}

object node:79 {
	name R1-12-47-3_node_46;
	phases ABCN;
	voltage_A 7200+0.0j;
	voltage_B -3600-6235j;
	voltage_C -3600+6235j;
	nominal_voltage 7200;
}

object node:80 {
	name R1-12-47-3_node_47;
	phases ABCN;
	voltage_A 7200+0.0j;
	voltage_B -3600-6235j;
	voltage_C -3600+6235j;
	nominal_voltage 7200;
}

object node:81 {
	name R1-12-47-3_node_48;
	phases ABCN;
	voltage_A 7200+0.0j;
	voltage_B -3600-6235j;
	voltage_C -3600+6235j;
	nominal_voltage 7200;
}

object node:82 {
	name R1-12-47-3_node_49;
	phases ABCN;
	voltage_A 7200+0.0j;
	voltage_B -3600-6235j;
	voltage_C -3600+6235j;
	nominal_voltage 7200;
}

object node:83 {
	name R1-12-47-3_node_50;
	phases ABCN;
	voltage_A 7200+0.0j;
	voltage_B -3600-6235j;
	voltage_C -3600+6235j;
	nominal_voltage 7200;
}

object node:84 {
	name R1-12-47-3_node_51;
	phases ABCN;
	voltage_A 7200+0.0j;
	voltage_B -3600-6235j;
	voltage_C -3600+6235j;
	nominal_voltage 7200;
}

object node:85 {
	name R1-12-47-3_node_52;
	parent R1-12-47-3_meter_22;
	phases ABCN;
	voltage_A 7200+0.0j;
	voltage_B -3600-6235j;
	voltage_C -3600+6235j;
	nominal_voltage 7200;
	// object recorder {
		// property voltage_A,voltage_B,voltage_C;
		// interval 60;
		// limit 1440;
		// file "node_85.csv";
	// };
 object complex_assert{
		target voltage_A;
		value +7199.99+0.00036507j;
		within 1;
	};
	object complex_assert{
		target voltage_B;
		value -3600-6235j;
		within 1;
	};
	object complex_assert{
		target voltage_C;
		value -3600+6234.99j;
		within 1;
	};
}

object node:224 {
	bustype SWING;
	name R1-12-47-3_node_53;
	phases ABCN;
	nominal_voltage 7200;
	voltage_A 7200+0.0j;
	voltage_B -3600-6235j;
	voltage_C -3600+6235j;
	// object recorder {
		// property voltage_A,voltage_B,voltage_C;
		// interval 60;
		// limit 1440;
		// file "node_224.csv";
	// };
 object complex_assert{
		target voltage_A;
		value +7200+0j;
		within 1;
	};
	object complex_assert{
		target voltage_B;
		value -3600-6235j;
		within 1;
	};
	object complex_assert{
		target voltage_C;
		value -3600+6235j;
		within 1;
	};
}


object overhead_line:171 {
	name R1-12-47-3_ol_1;
	phases ABCN;
	from R1-12-47-3_node_3;
	to R1-12-47-3_node_4;
	length 387.401;
	configuration line_configuration:18;
	// object recorder {
		// property power_in_A,power_in_B,power_in_C,power_out_A,power_out_B,power_out_C,power_losses_A,power_losses_B,power_losses_C;
		// interval 60;
		// limit 1440;
		// file "OL171.csv";
	// };
 object complex_assert{
		target power_in_A;
		value +469851+26275.5j;
		within 1;
	};
	object complex_assert{
		target power_in_B;
		value +408699+25466.7j;
		within 1;
	};
	object complex_assert{
		target power_in_C;
		value +500553+23106.9j;
		within 1;
	};
 object complex_assert{
		target power_out_A;
		value +469698+26022.9j;
		within 1;
	};
	object complex_assert{
		target power_out_B;
		value +408562+25304.6j;
		within 1;
	};
	object complex_assert{
		target power_out_C;
		value +500332+22816.1j;
		within 1;
	};
 object complex_assert{
		target power_losses_A;
		value +153.551+252.632j;
		within 1;
	};
	object complex_assert{
		target power_losses_B;
		value +136.233+162.144j;
		within 1;
	};
	object complex_assert{
		target power_losses_C;
		value +221.684+290.772j;
		within 1;
	};
}

object overhead_line:172 {
	name R1-12-47-3_ol_2;
	phases ACN;
	from R1-12-47-3_node_4;
	to R1-12-47-3_node_5;
	length 68.936;
	configuration line_configuration:19;
}

object overhead_line:173 {
	name R1-12-47-3_ol_3;
	phases CN;
	from R1-12-47-3_node_4;
	to R1-12-47-3_node_6;
	length 157.766;
	configuration line_configuration:20;
}

object overhead_line:174 {
	name R1-12-47-3_ol_4;
	phases ABCN;
	from R1-12-47-3_node_4;
	to R1-12-47-3_node_7;
	length 139.494;
	configuration line_configuration:18;
}

object overhead_line:175 {
	name R1-12-47-3_ol_5;
	phases ABCN;
	from R1-12-47-3_node_7;
	to R1-12-47-3_node_8;
	length 1260.546;
	configuration line_configuration:18;
}

object overhead_line:176 {
	name R1-12-47-3_ol_6;
	phases ABCN;
	from R1-12-47-3_node_8;
	to R1-12-47-3_node_9;
	length 633.806;
	configuration line_configuration:18;
}

object overhead_line:177 {
	name R1-12-47-3_ol_7;
	phases ABCN;
	from R1-12-47-3_node_9;
	to R1-12-47-3_node_10;
	length 237.576;
	configuration line_configuration:21;
}

object overhead_line:178 {
	name R1-12-47-3_ol_8;
	phases ACN;
	from R1-12-47-3_node_8;
	to R1-12-47-3_node_11;
	length 749.489;
	configuration line_configuration:22;
}

object overhead_line:179 {
	name R1-12-47-3_ol_9;
	phases CN;
	from R1-12-47-3_node_11;
	to R1-12-47-3_node_12;
	length 122.880;
	configuration line_configuration:23;
}

object overhead_line:180 {
	name R1-12-47-3_ol_10;
	phases ACN;
	from R1-12-47-3_node_11;
	to R1-12-47-3_node_13;
	length 245.725;
	configuration line_configuration:19;
}

object overhead_line:181 {
	name R1-12-47-3_ol_11;
	phases CN;
	from R1-12-47-3_node_13;
	to R1-12-47-3_node_14;
	length 275.331;
	configuration line_configuration:23;
}

object overhead_line:182 {
	name R1-12-47-3_ol_12;
	phases ABCN;
	from R1-12-47-3_node_8;
	to R1-12-47-3_node_15;
	length 275.240;
	configuration line_configuration:18;
}

object overhead_line:183 {
	name R1-12-47-3_ol_13;
	phases ABCN;
	from R1-12-47-3_node_15;
	to R1-12-47-3_node_16;
	length 63.897;
	configuration line_configuration:18;
}

object overhead_line:184 {
	name R1-12-47-3_ol_14;
	phases ABCN;
	from R1-12-47-3_node_17;
	to R1-12-47-3_node_18;
	length 1499.769;
	configuration line_configuration:24;
}

object overhead_line:185 {
	name R1-12-47-3_ol_15;
	phases ABCN;
	from R1-12-47-3_node_18;
	to R1-12-47-3_node_19;
	length 485.017;
	configuration line_configuration:24;
	// object recorder {
		// property power_in_A,power_in_B,power_in_C,power_out_A,power_out_B,power_out_C,power_losses_A,power_losses_B,power_losses_C,current_in_A,current_in_B,current_in_C;
		// interval 60;
		// limit 1440;
		// file "OL185.csv";
	// };
object complex_assert{
		target power_in_A;
		value +74071.1+3684.07j;
		within 1;
	};
	object complex_assert{
		target power_in_B;
		value +39691.9+1517.46j;
		within 1;
	};
	object complex_assert{
		target power_in_C;
		value +27468.9+784.816j;
		within 1;
	};
 object complex_assert{
		target power_out_A;
		value +74053.1+3672.82j;
		within 1;
	};
	object complex_assert{
		target power_out_B;
		value +39689.1+1514.84j;
		within 1;
	};
	object complex_assert{
		target power_out_C;
		value +27466.2+784.838j;
		within 1;
	};
 object complex_assert{
		target power_losses_A;
		value +18.0766+11.2534j;
		within 1;
	};
	object complex_assert{
		target power_losses_B;
		value +2.75542+2.62092j;
		within 1;
	};
	object complex_assert{
		target power_losses_C;
		value +2.69577-0.021659j;
		within 1;
	};
}

object overhead_line:186 {
	name R1-12-47-3_ol_16;
	phases ABCN;
	from R1-12-47-3_node_19;
	to R1-12-47-3_node_21;
	length 275.614;
	configuration line_configuration:26;
}

object overhead_line:187 {