// $Id: R2-25.00-1.glm 
// 24.9 kV feeder
//*********************************************
// validates voltages with FBS at selected load, node, meter, triplex_node, and
// triplex_meter objects

// written by: alek332
clock{
	timezone EST+8EDT;
	timestamp '2000-01-01 0:00:00';
	stoptime '2000-01-01 1:00:00';
}

#set profiler=1 
//********************************************* 
// modules 
module assert;
module tape; 
module powerflow{ 
     solver_method NR; 
      default_maximum_voltage_error 1e-6;
}; 

//********************************************* 
object regulator:2048 { 
     name R2-25-00-1_reg_1; 
     from R2-25-00-1_node_324; 
     to R2-25-00-1_meter_73; 
     phases ABCN; 
     configuration regulator_configuration:2049; 
     object recorder { 
          property tap_A,tap_B,tap_C,power_in_A.real,power_in_A.imag,power_in_B.real,power_in_B.imag,power_in_C.real,power_in_C.imag,power_in.real,power_in.imag; 
          limit 1440; 
          interval 60; 
          file "R2-25.00-1_reg_output.csv"; 
     }; 
} 

object regulator_configuration:2049 { 
     name feeder_reg_cfg; 
     Control OUTPUT_VOLTAGE; 
     band_center 14975.0; 
     band_width 240; 
     connect_type WYE_WYE; 
     time_delay 30; 
     raise_taps 16; 
     lower_taps 16; 
     regulation 0.10; 
     tap_pos_A 0; 
     tap_pos_B 0; 
     tap_pos_C 0; 
} 

object capacitor:2042 { 
     name R2-25-00-1_cap_1; 
     phases ABCN; 
     pt_phase B; 
     parent R2-25-00-1_node_35; 
     phases_connected ABC; 
     control VOLT; 
     voltage_set_high 14500; 
     voltage_set_low 13500; 
     capacitor_A 0.4 MVAr; 
     capacitor_B 0.4 MVAr; 
     capacitor_C 0.4 MVAr; 
     control_level INDIVIDUAL; 
     time_delay 30.0; 
     dwell_time 30.0; 
     cap_nominal_voltage 14380; 
     nominal_voltage 14376.02; 
     // object recorder { 
          // property "switchA,switchB,switchC,voltage_A.real,voltage_A.imag,voltage_B.real,voltage_B.imag,voltage_C.real,voltage_C.imag"; 
          // file R2-25.00-1_capacitor1.csv; 
          // interval 60; 
          // limit 1440; 
     // }; 
} 

object capacitor:2043 { 
     name R2-25-00-1_cap_2; 
     phases ABCN; 
     pt_phase B; 
     parent R2-25-00-1_node_104; 
     phases_connected ABC; 
     control VOLT; 
     voltage_set_high 14500; 
     voltage_set_low 13500; 
     capacitor_A 0.4 MVAr; 
     capacitor_B 0.4 MVAr; 
     capacitor_C 0.4 MVAr; 
     control_level INDIVIDUAL; 
     time_delay 30.0; 
     dwell_time 30.0; 
     cap_nominal_voltage 14380; 
     nominal_voltage 14376.02; 
     // object recorder { 
          // property "switchA,switchB,switchC,voltage_A.real,voltage_A.imag,voltage_B.real,voltage_B.imag,voltage_C.real,voltage_C.imag"; 
          // file R2-25.00-1_capacitor2.csv; 
          // interval 60; 
          // limit 1440; 
     // }; 
} 

object capacitor:2044 { 
     name R2-25-00-1_cap_3; 
     phases ABCN; 
     pt_phase B; 
     parent R2-25-00-1_node_164; 
     phases_connected ABC; 
     control VOLT; 
     voltage_set_high 14500; 
     voltage_set_low 13500; 
     capacitor_A 0.4 MVAr; 
     capacitor_B 0.4 MVAr; 
     capacitor_C 0.4 MVAr; 
     control_level INDIVIDUAL; 
     time_delay 30.0; 
     dwell_time 30.0; 
     cap_nominal_voltage 14380; 
     nominal_voltage 14376.02; 
     // object recorder { 
          // property "switchA,switchB,switchC,voltage_A.real,voltage_A.imag,voltage_B.real,voltage_B.imag,voltage_C.real,voltage_C.imag"; 
          // file R2-25.00-1_capacitor3.csv; 
          // interval 60; 
          // limit 1440; 
     // }; 
} 

object capacitor:2045 { 
     name R2-25-00-1_cap_4; 
     phases ABCN; 
     pt_phase B; 
     parent R2-25-00-1_node_265; 
     phases_connected ABC; 
     control VOLT; 
     voltage_set_high 14500; 
     voltage_set_low 13500; 
     capacitor_A 0.3 MVAr; 
     capacitor_B 0.3 MVAr; 
     capacitor_C 0.3 MVAr; 
     control_level INDIVIDUAL; 
     time_delay 30.0; 
     dwell_time 30.0; 
     cap_nominal_voltage 14380; 
     nominal_voltage 14376.02; 
     // object recorder { 
          // property "switchA,switchB,switchC,voltage_A.real,voltage_A.imag,voltage_B.real,voltage_B.imag,voltage_C.real,voltage_C.imag"; 
          // file R2-25.00-1_capacitor4.csv; 
          // interval 60; 
          // limit 1440; 
     // }; 
} 

object capacitor:2046 { 
     name R2-25-00-1_cap_5; 
     phases ABCN; 
     pt_phase B; 
     parent R2-25-00-1_node_268; 
     phases_connected ABC; 
     control MANUAL; 
     capacitor_A 0.4 MVAr; 
     capacitor_B 0.4 MVAr; 
     capacitor_C 0.4 MVAr; 
     control_level INDIVIDUAL; 
     time_delay 30.0; 
     dwell_time 30.0; 
     cap_nominal_voltage 14380; 
     nominal_voltage 14376.02; 
     // object recorder { 
          // property "switchA,switchB,switchC,voltage_A.real,voltage_A.imag,voltage_B.real,voltage_B.imag,voltage_C.real,voltage_C.imag"; 
          // file R2-25.00-1_capacitor5.csv; 
          // interval 60; 
          // limit 1440; 
     // }; 
} 

object fuse:1946 { 
     name R2-25-00-1_fuse_1; 
     phases ABCN; 
     from R2-25-00-1_node_241; 
     to R2-25-00-1_node_11; 
     current_limit 650; 
     status CLOSED; 
} 

object fuse:1947 { 
     name R2-25-00-1_fuse_2; 
     phases ABCN; 
     from R2-25-00-1_node_18; 
     to R2-25-00-1_node_12; 
     current_limit 800; 
     status CLOSED; 
} 

object fuse:1948 { 
     name R2-25-00-1_fuse_3; 
     phases ABCN; 
     from R2-25-00-1_node_128; 
     to R2-25-00-1_node_13; 
     current_limit 500; 
     status CLOSED; 
} 

object fuse:1949 { 
     name R2-25-00-1_fuse_4; 
     phases AN; 
     from R2-25-00-1_node_284; 
     to R2-25-00-1_node_16; 
     current_limit 400; 
     status CLOSED; 
} 

object fuse:1950 { 
     name R2-25-00-1_fuse_5; 
     phases BN; 
     from R2-25-00-1_node_191; 
     to R2-25-00-1_node_17; 
     current_limit 1000; 
     status CLOSED; 
} 

object fuse:1951 { 
     name R2-25-00-1_fuse_6; 
     phases ABCN; 
     from R2-25-00-1_node_134; 
     to R2-25-00-1_node_20; 
     current_limit 2000; 
     status CLOSED; 
} 

object fuse:1952 { 
     name R2-25-00-1_fuse_7; 
     phases AN; 
     from R2-25-00-1_node_236; 
     to R2-25-00-1_node_34; 
     current_limit 500; 
     status CLOSED; 
} 

object fuse:1953 { 
     name R2-25-00-1_fuse_8; 
     phases ABCN; 
     from R2-25-00-1_node_141; 
     to R2-25-00-1_node_41; 
     current_limit 650; 
     status CLOSED; 
} 

object fuse:1954 { 
     name R2-25-00-1_fuse_9; 
     phases CN; 
     from R2-25-00-1_node_48; 
     to R2-25-00-1_node_319; 
     current_limit 500; 
     status CLOSED; 
} 

object fuse:1955 { 
     name R2-25-00-1_fuse_10; 
     phases CN; 
     from R2-25-00-1_node_237; 
     to R2-25-00-1_node_49; 
     current_limit 500; 
     status CLOSED; 
} 

object fuse:1956 { 
     name R2-25-00-1_fuse_11; 
     phases ABCN; 
     from R2-25-00-1_node_248; 
     to R2-25-00-1_node_50; 
     current_limit 1000; 
     status CLOSED; 
} 

object fuse:1957 { 
     name R2-25-00-1_fuse_12; 
     phases CN; 
     from R2-25-00-1_node_107; 
     to R2-25-00-1_node_52; 
     current_limit 500; 
     status CLOSED; 
} 

object fuse:1958 { 
     name R2-25-00-1_fuse_13; 
     phases ABCN; 
     from R2-25-00-1_node_108; 
     to R2-25-00-1_node_61; 
     current_limit 650; 
     status CLOSED; 
} 

object fuse:1959 { 
     name R2-25-00-1_fuse_14; 
     phases BN; 
     from R2-25-00-1_node_175; 
     to R2-25-00-1_node_65; 
     current_limit 650; 
     status CLOSED; 
} 

object fuse:1960 { 
     name R2-25-00-1_fuse_15; 
     phases AN; 
     from R2-25-00-1_node_66; 
     to R2-25-00-1_node_320; 
     current_limit 400; 
     status CLOSED; 
} 

object fuse:1961 { 
     name R2-25-00-1_fuse_16; 
     phases BN; 
     from R2-25-00-1_node_45; 
     to R2-25-00-1_node_72; 
     current_limit 500; 
     status CLOSED; 
} 

object fuse:1962 { 
     name R2-25-00-1_fuse_17; 
     phases BN; 
     from R2-25-00-1_node_17; 
     to R2-25-00-1_node_77; 
     current_limit 500; 
     status CLOSED; 
} 

object fuse:1963 { 
     name R2-25-00-1_fuse_18; 
     phases ABCN; 
     from R2-25-00-1_node_287; 
     to R2-25-00-1_node_87; 
     current_limit 500; 
     status CLOSED; 
} 

object fuse:1964 { 
     name R2-25-00-1_fuse_19; 
     phases ABCN; 
     from R2-25-00-1_node_113; 
     to R2-25-00-1_node_101; 
     current_limit 1000; 
     status CLOSED; 
} 

object fuse:1965 { 
     name R2-25-00-1_fuse_20; 
     phases ABCN; 
     from R2-25-00-1_node_223; 
     to R2-25-00-1_node_103; 
     current_limit 1000; 
     status CLOSED; 
} 

object fuse:1966 { 
     name R2-25-00-1_fuse_21; 
     phases ABCN; 
     from R2-25-00-1_node_249; 
     to R2-25-00-1_node_118; 
     current_limit 1000; 
     status CLOSED; 
} 

object fuse:1967 { 
     name R2-25-00-1_fuse_22; 
     phases ABCN; 
     from R2-25-00-1_node_222; 
     to R2-25-00-1_node_119; 
     current_limit 1000; 
     status CLOSED; 
} 

object fuse:1968 { 
     name R2-25-00-1_fuse_23; 
     phases BN; 
     from R2-25-00-1_node_149; 
     to R2-25-00-1_node_124; 
     current_limit 500; 
     status CLOSED; 
} 

object fuse:1969 { 
     name R2-25-00-1_fuse_24; 
     phases CN; 
     from R2-25-00-1_node_31; 
     to R2-25-00-1_node_125; 
     current_limit 400; 
     status CLOSED; 
} 

object fuse:1970 { 
     name R2-25-00-1_fuse_25; 
     phases BN; 
     from R2-25-00-1_node_206; 
     to R2-25-00-1_node_126; 
     current_limit 500; 
     status CLOSED; 
} 

object fuse:1971 { 
     name R2-25-00-1_fuse_26; 
     phases CN; 
     from R2-25-00-1_node_262; 
     to R2-25-00-1_node_132; 
     current_limit 500; 
     status CLOSED; 
} 

object fuse:1972 { 
     name R2-25-00-1_fuse_27; 
     phases CN; 
     from R2-25-00-1_node_228; 
     to R2-25-00-1_node_142; 
     current_limit 500; 
     status CLOSED; 
} 

object fuse:1973 { 
     name R2-25-00-1_fuse_28; 
     phases ABCN; 
     from R2-25-00-1_node_145; 
     to R2-25-00-1_node_146; 
     current_limit 650; 
     status CLOSED; 
} 

object fuse:1974 { 
     name R2-25-00-1_fuse_29; 
     phases AN; 
     from R2-25-00-1_node_68; 
     to R2-25-00-1_node_147; 
     current_limit 500; 
     status CLOSED; 
} 

object fuse:1975 { 
     name R2-25-00-1_fuse_30; 
     phases CN; 
     from R2-25-00-1_node_94; 
     to R2-25-00-1_node_148; 
     current_limit 800; 
     status CLOSED; 
} 

object fuse:1976 { 
     name R2-25-00-1_fuse_31; 
     phases CN; 
     from R2-25-00-1_node_92; 
     to R2-25-00-1_node_155; 
     current_limit 650; 
     status CLOSED; 
} 

object fuse:1977 { 
     name R2-25-00-1_fuse_32; 
     phases AN; 
     from R2-25-00-1_node_70; 
     to R2-25-00-1_node_158; 
     current_limit 400; 
     status CLOSED; 
} 

object fuse:1978 { 
     name R2-25-00-1_fuse_33; 
     phases CN; 
     from R2-25-00-1_node_92; 
     to R2-25-00-1_node_177; 
     current_limit 650; 
     status CLOSED; 
} 

object fuse:1979 { 
     name R2-25-00-1_fuse_34; 
     phases CN; 
     from R2-25-00-1_node_117; 
     to R2-25-00-1_node_181; 
     current_limit 650; 
     status CLOSED; 
} 

object fuse:1980 { 
     name R2-25-00-1_fuse_35; 
     phases AN; 
     from R2-25-00-1_node_163; 
     to R2-25-00-1_node_192; 
     current_limit 500; 
     status CLOSED; 
} 

object fuse:1981 { 
     name R2-25-00-1_fuse_36; 
     phases ABCN; 
     from R2-25-00-1_node_105; 
     to R2-25-00-1_node_193; 
     current_limit 1000; 
     status CLOSED; 
} 

object fuse:1982 { 
     name R2-25-00-1_fuse_37; 
     phases CN; 
     from R2-25-00-1_node_62; 
     to R2-25-00-1_node_194; 
     current_limit 400; 
     status CLOSED; 
} 

object fuse:1983 { 
     name R2-25-00-1_fuse_38; 
     phases CN; 
     from R2-25-00-1_node_306; 
     to R2-25-00-1_node_195; 
     current_limit 500; 
     status CLOSED; 
} 

object fuse:1984 { 
     name R2-25-00-1_fuse_39; 
     phases BN; 
     from R2-25-00-1_node_27; 
     to R2-25-00-1_node_196; 
     current_limit 1000; 
     status CLOSED; 
} 

object fuse:1985 { 
     name R2-25-00-1_fuse_40; 
     phases ABCN; 
     from R2-25-00-1_node_234; 
     to R2-25-00-1_node_201; 
     current_limit 500; 
     status CLOSED; 
} 

object fuse:1986 { 
     name R2-25-00-1_fuse_41; 
     phases BN; 
     from R2-25-00-1_node_63; 
     to R2-25-00-1_node_215; 
     current_limit 500; 
     status CLOSED; 
} 

object fuse:1987 { 
     name R2-25-00-1_fuse_42; 
     phases CN; 
     from R2-25-00-1_node_200; 
     to R2-25-00-1_node_231; 
     current_limit 1000; 
     status CLOSED; 
} 

object fuse:1988 { 
     name R2-25-00-1_fuse_43; 
     phases ABCN; 
     from R2-25-00-1_node_204; 
     to R2-25-00-1_node_232; 
     current_limit 1000; 
     status CLOSED; 
} 

object fuse:1989 { 
     name R2-25-00-1_fuse_44; 
     phases AN; 
     from R2-25-00-1_node_36; 
     to R2-25-00-1_node_238; 
     current_limit 500; 
     status CLOSED; 
} 

object fuse:1990 { 
     name R2-25-00-1_fuse_45; 
     phases BN; 
     from R2-25-00-1_node_89; 
     to R2-25-00-1_node_245; 
     current_limit 1000; 
     status CLOSED; 
} 

object fuse:1991 { 
     name R2-25-00-1_fuse_46; 
     phases BN; 
     from R2-25-00-1_node_217; 
     to R2-25-00-1_node_247; 
     current_limit 650; 
     status CLOSED; 
} 

object fuse:1992 { 
     name R2-25-00-1_fuse_47; 
     phases AN; 
     from R2-25-00-1_node_70; 
     to R2-25-00-1_node_254; 
     current_limit 400; 
     status CLOSED; 
} 

object fuse:1993 { 
     name R2-25-00-1_fuse_48; 
     phases CN; 
     from R2-25-00-1_node_227; 
     to R2-25-00-1_node_259; 
     current_limit 650; 
     status CLOSED; 
} 

object fuse:1994 { 
     name R2-25-00-1_fuse_49; 
     phases ABCN; 
     from R2-25-00-1_node_296; 
     to R2-25-00-1_node_267; 
     current_limit 1000; 
     status CLOSED; 
} 

object fuse:1995 { 
     name R2-25-00-1_fuse_50; 
     phases AN; 
     from R2-25-00-1_node_217; 
     to R2-25-00-1_node_270; 
     current_limit 650; 
     status CLOSED; 
} 

object fuse:1996 { 
     name R2-25-00-1_fuse_51; 
     phases BN; 
     from R2-25-00-1_node_129; 
     to R2-25-00-1_node_292; 
     current_limit 650; 
     status CLOSED; 
} 

object fuse:1997 { 
     name R2-25-00-1_fuse_52; 
     phases ABCN; 
     from R2-25-00-1_node_188; 
     to R2-25-00-1_node_299; 
     current_limit 1000; 
     status CLOSED; 
} 

object fuse:1998 { 
     name R2-25-00-1_fuse_53; 
     phases CN; 
     from R2-25-00-1_node_49; 
     to R2-25-00-1_node_301; 
     current_limit 400; 
     status CLOSED; 
} 

object fuse:1999 { 
     name R2-25-00-1_fuse_54; 
     phases ABCN; 
     from R2-25-00-1_node_293; 
     to R2-25-00-1_node_303; 
     current_limit 500; 
     status CLOSED; 
} 

object fuse:2000 { 
     name R2-25-00-1_fuse_55; 
     phases CN; 
     from R2-25-00-1_node_42; 
     to R2-25-00-1_node_307; 
     current_limit 300; 
     status CLOSED; 
} 

object fuse:2001 { 
     name R2-25-00-1_fuse_56; 
     phases BN; 
     from R2-25-00-1_node_242; 
     to R2-25-00-1_node_308; 
     current_limit 500; 
     status CLOSED; 
} 

object fuse:2002 { 
     name R2-25-00-1_fuse_57; 
     phases AN; 
     from R2-25-00-1_node_116; 
     to R2-25-00-1_node_321; 
     current_limit 500; 
     status CLOSED; 
} 

object line_configuration:21 { 
     conductor_A underground_line_conductor:2; 
     conductor_N underground_line_conductor:2; 
     spacing line_spacing:14; 
} 

object line_configuration:22 { 
     conductor_A overhead_line_conductor:3; 
     conductor_B overhead_line_conductor:3; 
     conductor_C overhead_line_conductor:3; 
     conductor_N overhead_line_conductor:3; 
     spacing line_spacing:15; 
} 

object line_configuration:23 { 
     conductor_A underground_line_conductor:4; 
     conductor_N underground_line_conductor:4; 
     spacing line_spacing:14; 
} 

object line_configuration:24 { 
     conductor_A overhead_line_conductor:3; 
     conductor_B overhead_line_conductor:3; 
     conductor_C overhead_line_conductor:3; 
     conductor_N overhead_line_conductor:3; 
     spacing line_spacing:15; 
} 

object line_configuration:25 { 
     conductor_A underground_line_conductor:5; 
     conductor_B underground_line_conductor:5; 
     conductor_C underground_line_conductor:5; 
     conductor_N underground_line_conductor:5; 
     spacing line_spacing:16; 
} 

object line_configuration:26 { 
     conductor_A overhead_line_conductor:6; 
     conductor_B overhead_line_conductor:6; 
     conductor_C overhead_line_conductor:6; 
     conductor_N overhead_line_conductor:6; 
     spacing line_spacing:16; 
} 

object line_configuration:27 { 
     conductor_B overhead_line_conductor:7; 
     conductor_N overhead_line_conductor:7; 
     spacing line_spacing:17; 
} 

object line_configuration:28 { 
     conductor_C underground_line_conductor:2; 
     conductor_N underground_line_conductor:2; 
     spacing line_spacing:18; 
} 

object line_configuration:29 { 
     conductor_A overhead_line_conductor:7; 
     conductor_B overhead_line_conductor:7; 
     conductor_C overhead_line_conductor:7; 
     conductor_N overhead_line_conductor:7; 
     spacing line_spacing:15; 
} 

object line_configuration:30 { 
     conductor_B underground_line_conductor:4; 
     conductor_N underground_line_conductor:4; 
     spacing line_spacing:19; 
} 

object line_configuration:31 { 
     conductor_C overhead_line_conductor:7; 
     conductor_N overhead_line_conductor:7; 
     spacing line_spacing:20; 
} 

object line_configuration:32 { 
     conductor_B underground_line_conductor:2; 
     conductor_N underground_line_conductor:2; 
     spacing line_spacing:19; 
} 

object line_configuration:33 { 
     conductor_A underground_line_conductor:2; 
     conductor_N underground_line_conductor:2; 
     spacing line_spacing:14; 
} 

object line_configuration:34 { 
     conductor_A overhead_line_conductor:8; 
     conductor_B overhead_line_conductor:8; 
     conductor_C overhead_line_conductor:8; 
     conductor_N overhead_line_conductor:8; 
     spacing line_spacing:15; 
} 

object line_configuration:35 { 
     conductor_A overhead_line_conductor:8; 
     conductor_B overhead_line_conductor:8; 
     conductor_C overhead_line_conductor:8; 
     conductor_N overhead_line_conductor:8; 
     spacing line_spacing:15; 
} 

object line_configuration:36 { 
     conductor_A underground_line_conductor:4; 
     conductor_B underground_line_conductor:4; 
     conductor_C underground_line_conductor:4; 
     conductor_N underground_line_conductor:4; 
     spacing line_spacing:16; 
} 

object line_configuration:37 { 
     conductor_C underground_line_conductor:4; 
     conductor_N underground_line_conductor:4; 
     spacing line_spacing:18; 
} 

object line_configuration:38 { 
     conductor_C overhead_line_conductor:9; 
     conductor_N overhead_line_conductor:9; 
     spacing line_spacing:20; 
} 

object line_configuration:39 { 
     conductor_C underground_line_conductor:2; 
     conductor_N underground_line_conductor:2; 
     spacing line_spacing:18; 
} 

object line_configuration:40 { 
     conductor_A overhead_line_conductor:10; 
     conductor_B overhead_line_conductor:10; 
     conductor_C overhead_line_conductor:10; 
     conductor_N overhead_line_conductor:10; 
     spacing line_spacing:15; 
} 

object line_configuration:41 { 
     conductor_A overhead_line_conductor:7; 
     conductor_B overhead_line_conductor:7; 
     conductor_C overhead_line_conductor:7; 
     conductor_N overhead_line_conductor:7; 
     spacing line_spacing:15; 
} 

object line_configuration:42 { 
     conductor_C overhead_line_conductor:11; 
     conductor_N overhead_line_conductor:11; 
     spacing line_spacing:20; 
} 

object line_configuration:43 { 
     conductor_C overhead_line_conductor:10; 
     conductor_N overhead_line_conductor:10; 
     spacing line_spacing:20; 
} 

object line_configuration:44 { 
     conductor_C overhead_line_conductor:11; 
     conductor_N overhead_line_conductor:11; 
     spacing line_spacing:20; 
} 

object line_configuration:45 { 
     conductor_B overhead_line_conductor:8; 
     conductor_N overhead_line_conductor:8; 
     spacing line_spacing:17; 
} 

object line_configuration:46 { 
     conductor_A overhead_line_conductor:8; 
     conductor_B overhead_line_conductor:8; 
     conductor_C overhead_line_conductor:8; 
     conductor_N overhead_line_conductor:8; 
     spacing line_spacing:15; 
} 

object line_configuration:47 { 
     conductor_A overhead_line_conductor:6; 
     conductor_B overhead_line_conductor:6; 
     conductor_C overhead_line_conductor:6; 
     conductor_N overhead_line_conductor:6; 
     spacing line_spacing:15; 
} 

object line_configuration:48 { 
     conductor_B overhead_line_conductor:6; 
     conductor_N overhead_line_conductor:6; 
     spacing line_spacing:17; 
} 

object line_configuration:49 { 
     conductor_B overhead_line_conductor:10; 
     conductor_N overhead_line_conductor:10; 
     spacing line_spacing:17; 
} 

object line_configuration:50 { 
     conductor_C overhead_line_conductor:12; 
     conductor_N overhead_line_conductor:12; 
     spacing line_spacing:20; 
} 

object line_configuration:51 { 
     conductor_A overhead_line_conductor:3; 
     conductor_B overhead_line_conductor:3; 
     conductor_C overhead_line_conductor:3; 
     conductor_N overhead_line_conductor:3; 
     spacing line_spacing:15; 
} 

object line_configuration:52 { 
     conductor_A overhead_line_conductor:6; 
     conductor_B overhead_line_conductor:6; 
     conductor_C overhead_line_conductor:6; 
     conductor_N overhead_line_conductor:6; 
     spacing line_spacing:15; 
} 

object line_configuration:53 { 
     conductor_A overhead_line_conductor:13; 
     conductor_B overhead_line_conductor:13; 
     conductor_C overhead_line_conductor:13; 
     conductor_N overhead_line_conductor:13; 
     spacing line_spacing:15; 
} 

object line_spacing:14 { 
     distance_AN 6.0 in; 
} 

object line_spacing:15 { 
     distance_AB 59.0 in; 
     distance_BC 59.0 in; 
     distance_AC 59.0 in; 
     distance_AN 59.0 in; 
     distance_BN 59.0 in; 
     distance_CN 59.0 in; 
} 

object line_spacing:16 { 
     distance_AB 6.0 in; 
     distance_BC 6.0 in; 
     distance_AC 6.0 in; 
     distance_AN 6.0 in; 
     distance_BN 6.0 in; 
     distance_CN 6.0 in; 
} 

object line_spacing:17 { 
     distance_BN 53.0 in; 
} 

object line_spacing:18 { 
     distance_CN 6.0 in; 
} 

object line_spacing:19 { 
     distance_BN 6.0 in; 
} 

object line_spacing:20 { 
     distance_CN 53.0 in; 
} 

object load:377 { 
     name R2-25-00-1_load_1; 
     parent R2-25-00-1_meter_1; 
     phases ABCN; 
     voltage_A 14376.02+0.0j; 
     voltage_B -7188.01-12450j; 
     voltage_C -7188.01+12450j; 
     constant_power_A 141703.2458+82991.5943j; 
     constant_power_B 138259.98+84772.568j; 
     constant_power_C 139738.3161+82584.5027j; 
     nominal_voltage 14376.02; 
     load_class C; 
} 

object load:378 { 
     name R2-25-00-1_load_2; 
     parent R2-25-00-1_meter_2; 
     phases ABCN; 
     voltage_A 14376.02+0.0j; 
     voltage_B -7188.01-12450j; 
     voltage_C -7188.01+12450j; 
     constant_power_A 213403.2458+136991.5943j; 
     constant_power_B 209959.98+138772.568j; 
     constant_power_C 211438.3161+136584.5027j; 
     nominal_voltage 14376.02; 
     load_class C; 
} 

object load:379 { 
     name R2-25-00-1_load_3; 
     parent R2-25-00-1_meter_3; 
     phases ABCN; 
     voltage_A 14376.02+0.0j; 
     voltage_B -7188.01-12450j; 
     voltage_C -7188.01+12450j; 
     constant_power_A 25686.7852+6210.3769j; 
     constant_power_B 23792.989+7189.9124j; 
     constant_power_C 24606.0739+5986.4765j; 
     nominal_voltage 14376.02; 
     load_class C; 
} 

object load:380 { 
     name R2-25-00-1_load_4; 
     parent R2-25-00-1_meter_4; 
     phases ABCN; 
     voltage_A 14376.02+0.0j; 
     voltage_B -7188.01-12450j; 
     voltage_C -7188.01+12450j; 
     constant_power_A 23351.6229+5645.7971j; 
     constant_power_B 21629.99+6536.284j; 
     constant_power_C 22369.1581+5442.2514j; 
     nominal_voltage 14376.02; 
     load_class C; 
} 

object load:381 { 
     name R2-25-00-1_load_5; 
     parent R2-25-00-1_meter_5; 
     phases ABCN; 
     voltage_A 14376.02+0.0j; 
     voltage_B -7188.01-12450j; 
     voltage_C -7188.01+12450j; 
     constant_power_A 11675.8114+2822.8986j; 
     constant_power_B 10814.995+3268.142j; 
     constant_power_C 11184.579+2721.1257j; 
     nominal_voltage 14376.02; 
     load_class C; 
} 

object load:382 { 
     name R2-25-00-1_load_6; 
     parent R2-25-00-1_meter_6; 
     phases CN; 
     voltage_C -7188.01+12450j; 
     constant_power_C 4473.8316+1088.4503j; 
     nominal_voltage 14376.02; 
     load_class A; 
} 

object load:383 { 
     name R2-25-00-1_load_7; 
     parent R2-25-00-1_meter_7; 
     phases ABCN; 
     voltage_A 14376.02+0.0j; 
     voltage_B -7188.01-12450j; 
     voltage_C -7188.01+12450j; 
     constant_power_A 70000+52700j; 
     constant_power_B 70000+52700j; 
     constant_power_C 70000+52700j; 
     nominal_voltage 14376.02; 
     load_class C; 
} 

object load:384 { 
     name R2-25-00-1_load_8; 
     parent R2-25-00-1_meter_8; 
     phases CN; 
     voltage_C -7188.01+12450j; 
     constant_power_C 11184.579+2721.1257j; 
     nominal_voltage 14376.02; 
     load_class A; 
} 

object load:385 { 
     name R2-25-00-1_load_9; 
     parent R2-25-00-1_meter_9; 
     phases ABCN; 
     voltage_A 14376.02+0.0j; 
     voltage_B -7188.01-12450j; 
     voltage_C -7188.01+12450j; 
     constant_power_A 59975.8114+38822.8986j; 
     constant_power_B 59114.995+39268.142j; 
     constant_power_C 59484.579+38721.1257j; 
     nominal_voltage 14376.02; 
     load_class C; 
} 

object load:386 { 
     name R2-25-00-1_load_10; 
     parent R2-25-00-1_meter_10; 
     phases CN; 
     voltage_C -7188.01+12450j; 
     constant_power_C 40264.4845+9796.0524j; 
     nominal_voltage 14376.02; 
     load_class A; 
} 

object load:387 { 
     name R2-25-00-1_load_11; 
     parent R2-25-00-1_meter_11; 
     phases ABCN; 
     voltage_A 14376.02+0.0j; 
     voltage_B -7188.01-12450j; 
     voltage_C -7188.01+12450j; 
     constant_power_A 58379.0572+14114.4928j; 
     constant_power_B 54074.975+16340.71j; 
     constant_power_C 55922.8952+13605.6284j; 
     nominal_voltage 14376.02; 
     load_class C; 
} 

object load:388 { 
     name R2-25-00-1_load_12; 
     parent R2-25-00-1_meter_12; 
     phases BN; 
     voltage_B -7188.01-12450j; 
     constant_power_B 10814.995+3268.142j; 
     nominal_voltage 14376.02; 
     load_class C; 
} 

object load:389 { 
     name R2-25-00-1_load_13; 
     parent R2-25-00-1_meter_13; 
     phases ABCN; 
     voltage_A 14376.02+0.0j; 
     voltage_B -7188.01-12450j; 
     voltage_C -7188.01+12450j; 
     constant_power_A 3891.9356+940.9658j; 
     constant_power_B 3604.9969+1089.3802j; 
     constant_power_C 3728.1915+907.0415j; 
     nominal_voltage 14376.02; 
     load_class C; 
} 

object load:390 { 
     name R2-25-00-1_load_14; 
     parent R2-25-00-1_meter_14; 
     phases CN; 
     voltage_C -7188.01+12450j; 
     constant_power_C 4473.8316+1088.4503j; 
     nominal_voltage 14376.02; 
     load_class A; 
} 

object load:391 { 
     name R2-25-00-1_load_15; 
     parent R2-25-00-1_meter_15; 
     phases ABCN; 
     voltage_A 14376.02+0.0j; 
     voltage_B -7188.01-12450j; 
     voltage_C -7188.01+12450j; 
     constant_power_A 35027.4343+8468.6957j; 
     constant_power_B 32444.985+9804.426j; 
     constant_power_C 33553.7371+8163.377j; 
     nominal_voltage 14376.02; 
     load_class C; 
} 

object load:392 { 
     name R2-25-00-1_load_16; 
     parent R2-25-00-1_meter_16; 
     phases ABCN; 
     voltage_A 14376.02+0.0j; 
     voltage_B -7188.01-12450j; 
     voltage_C -7188.01+12450j; 
     constant_power_A 35027.4343+8468.6957j; 
     constant_power_B 32444.985+9804.426j; 
     constant_power_C 33553.7371+8163.377j; 
     nominal_voltage 14376.02; 
     load_class C; 
} 

object load:393 { 
     name R2-25-00-1_load_17; 
     parent R2-25-00-1_meter_17; 
     phases CN; 
     voltage_C -7188.01+12450j; 
     constant_power_C 26842.9897+6530.7016j; 
     nominal_voltage 14376.02; 
     load_class A; 
} 

object load:394 { 
     name R2-25-00-1_load_18; 
     parent R2-25-00-1_meter_18; 
     phases ABCN; 
     voltage_A 14376.02+0.0j; 
     voltage_B -7188.01-12450j; 
     voltage_C -7188.01+12450j; 
     constant_power_A 13232.5707+3199.2813j; 
     constant_power_B 12256.9799+3703.8899j; 
     constant_power_C 12675.8413+3083.9388j; 
     nominal_voltage 14376.02; 
     load_class C; 
} 

object load:395 { 
     name R2-25-00-1_load_19; 
     parent R2-25-00-1_meter_19; 
     phases ABCN; 
     voltage_A 14376.02+0.0j; 
     voltage_B -7188.01-12450j; 
     voltage_C -7188.01+12450j; 
     constant_power_A 23351.6229+5645.7971j; 
     constant_power_B 21629.99+6536.284j; 
     constant_power_C 22369.1581+5442.2514j; 
     nominal_voltage 14376.02; 
     load_class C; 
} 

object load:396 { 
     name R2-25-00-1_load_20; 
     parent R2-25-00-1_meter_20; 
     phases ABCN; 
     voltage_A 14376.02+0.0j; 
     voltage_B -7188.01-12450j; 
     voltage_C -7188.01+12450j; 
     constant_power_A 3113.5513+752.7733j; 
     constant_power_B 2884.0001+871.505j; 
     constant_power_C 2982.5559+725.6339j; 
     nominal_voltage 14376.02; 
     load_class C; 
} 

object load:397 { 
     name R2-25-00-1_load_21; 
     parent R2-25-00-1_meter_21; 
     phases ABCN; 
     voltage_A 14376.02+0.0j; 
     voltage_B -7188.01-12450j; 
     voltage_C -7188.01+12450j; 
     constant_power_A 10897.4084+2634.7016j; 
     constant_power_B 10093.9809+3050.2615j; 
     constant_power_C 10438.9255+2539.7137j; 
     nominal_voltage 14376.02; 
     load_class C; 
} 

object load:398 { 
     name R2-25-00-1_load_22; 
     parent R2-25-00-1_meter_22; 
     phases CN; 
     voltage_C -7188.01+12450j; 
     constant_power_C 20132.2423+4898.0262j; 