// $Id: R1-25.00-1.glm 
// 24.9 kV feeder
//*********************************************
// validates voltages with NR at selected load, node, meter, triplex_node, and
// triplex_meter objects

// created by: alek332
clock{
	timezone EST+8EDT;
	timestamp '2000-01-01 0:00:00';
	stoptime '2000-01-01 1:00:00';
}

#set profiler=1
//*********************************************
// modules

module tape;
module powerflow{
	solver_method NR;
	default_maximum_voltage_error 1e-9;
};
module assert;
//*********************************************

object regulator:1167 {
	name R1-25-00-1_reg_1;
	from R1-25-00-1_node_324;
	to R1-25-00-1_meter_91;
	phases ABCN;
	configuration regulator_configuration:1168;
	object recorder {
		 property tap_A,tap_B,tap_C,power_in_A.real,power_in_A.imag,power_in_B.real,power_in_B.imag,power_in_C.real,power_in_C.imag,power_in.real,power_in.imag;
		 limit 1440;
		 interval 60;
		 file "R1-25.00-1_reg_output.csv";
	};
}


object regulator_configuration:1168 {
	name feeder_reg_cfg;
	Control OUTPUT_VOLTAGE;
	band_center 14376.0;
	band_width 240;
	connect_type WYE_WYE;
	time_delay 30;
	raise_taps 16;
	lower_taps 16;
	regulation 0.10;
	tap_pos_A 0;
	tap_pos_B 0;
	tap_pos_C 0;
}


object capacitor:1165 {
	name R1-25-00-1_cap_1;
	phases ABCN;
	pt_phase AN;
	parent R1-25-00-1_node_163;
	phases_connected ABC;
	control VOLT;
	voltage_set_high 14500; 
	voltage_set_low 13500; 
	capacitor_A 0.133 MVAr;
	capacitor_B 0.133 MVAr;
	capacitor_C 0.133 MVAr;
	control_level INDIVIDUAL;
	time_delay 30.0;
	dwell_time 30.0;
	cap_nominal_voltage 14380;
	nominal_voltage 14376.02;
	// object recorder {
		// property "switchA,switchB,switchC,voltage_A.real,voltage_A.imag,voltage_B.real,voltage_B.imag,voltage_C.real,voltage_C.imag";
		// file R1-25.00-1_capacitor1.csv;
		// interval 60;
		// limit 1440;
	// };
}


object fuse:1145 {
	name R1-25-00-1_fuse_1;
	phases AN;
	from R1-25-00-1_node_148;
	to R1-25-00-1_node_292;
	current_limit 1000;
	status CLOSED;
}

object fuse:1146 {
	name R1-25-00-1_fuse_2;
	phases BN;
	from R1-25-00-1_node_297;
	to R1-25-00-1_node_298;
	current_limit 1000;
	status CLOSED;
}

object fuse:1147 {
	name R1-25-00-1_fuse_3;
	phases CN;
	from R1-25-00-1_node_64;
	to R1-25-00-1_node_65;
	current_limit 1000;
	status CLOSED;
}

object fuse:1148 {
	name R1-25-00-1_fuse_4;
	phases AN;
	from R1-25-00-1_node_145;
	to R1-25-00-1_node_146;
	current_limit 5000;
	status CLOSED;
}

object fuse:1149 {
	name R1-25-00-1_fuse_5;
	phases ABCN;
	from R1-25-00-1_node_153;
	to R1-25-00-1_node_155;
	current_limit 5000;
	status CLOSED;
}

object fuse:1150 {
	name R1-25-00-1_fuse_6;
	phases ABCN;
	from R1-25-00-1_node_164;
	to R1-25-00-1_node_165;
	current_limit 5000;
	status CLOSED;
}

object fuse:1151 {
	name R1-25-00-1_fuse_7;
	phases AN;
	from R1-25-00-1_node_207;
	to R1-25-00-1_node_208;
	current_limit 2500;
	status CLOSED;
}

object fuse:1152 {
	name R1-25-00-1_fuse_8;
	phases ABCN;
	from R1-25-00-1_node_207;
	to R1-25-00-1_node_213;
	current_limit 3000;
	status CLOSED;
}

object fuse:1153 {
	name R1-25-00-1_fuse_9;
	phases AN;
	from R1-25-00-1_node_244;
	to R1-25-00-1_node_250;
	current_limit 3000;
	status CLOSED;
}

object fuse:1154 {
	name R1-25-00-1_fuse_10;
	phases AN;
	from R1-25-00-1_node_259;
	to R1-25-00-1_node_261;
	current_limit 2000;
	status CLOSED;
}

object fuse:1155 {
	name R1-25-00-1_fuse_11;
	phases CN;
	from R1-25-00-1_node_313;
	to R1-25-00-1_node_319;
	current_limit 1000;
	status CLOSED;
}


object line_configuration:25 {
	conductor_A underground_line_conductor:2;
	conductor_N underground_line_conductor:2;
	spacing line_spacing:11;
}

object line_configuration:26 {
	conductor_A underground_line_conductor:3;
	conductor_N underground_line_conductor:3;
	spacing line_spacing:11;
}

object line_configuration:27 {
	conductor_A overhead_line_conductor:4;
	conductor_B overhead_line_conductor:4;
	conductor_C overhead_line_conductor:4;
	conductor_N overhead_line_conductor:4;
	spacing line_spacing:12;
}

object line_configuration:28 {
	conductor_B overhead_line_conductor:5;
	conductor_N overhead_line_conductor:5;
	spacing line_spacing:13;
}

object line_configuration:29 {
	conductor_B underground_line_conductor:3;
	conductor_N underground_line_conductor:3;
	spacing line_spacing:13;
}

object line_configuration:30 {
	conductor_C underground_line_conductor:3;
	conductor_N underground_line_conductor:3;
	spacing line_spacing:14;
}

object line_configuration:31 {
	conductor_A underground_line_conductor:3;
	conductor_B underground_line_conductor:3;
	conductor_C underground_line_conductor:3;
	conductor_N underground_line_conductor:3;
	spacing line_spacing:15;
}

object line_configuration:32 {
	conductor_A underground_line_conductor:6;
	conductor_B underground_line_conductor:6;
	conductor_C underground_line_conductor:6;
	conductor_N underground_line_conductor:6;
	spacing line_spacing:15;
}

object line_configuration:33 {
	conductor_C overhead_line_conductor:5;
	conductor_N overhead_line_conductor:5;
	spacing line_spacing:16;
}

object line_configuration:34 {
	conductor_A overhead_line_conductor:7;
	conductor_B overhead_line_conductor:7;
	conductor_C overhead_line_conductor:7;
	conductor_N overhead_line_conductor:7;
	spacing line_spacing:12;
}

object line_configuration:35 {
	conductor_A overhead_line_conductor:8;
	conductor_B overhead_line_conductor:8;
	conductor_C overhead_line_conductor:8;
	conductor_N overhead_line_conductor:8;
	spacing line_spacing:12;
}

object line_configuration:36 {
	conductor_A overhead_line_conductor:7;
	conductor_B overhead_line_conductor:7;
	conductor_C overhead_line_conductor:7;
	conductor_N overhead_line_conductor:7;
	spacing line_spacing:12;
}

object line_configuration:37 {
	conductor_A overhead_line_conductor:5;
	conductor_B overhead_line_conductor:5;
	conductor_C overhead_line_conductor:5;
	conductor_N overhead_line_conductor:5;
	spacing line_spacing:12;
}

object line_configuration:38 {
	conductor_A overhead_line_conductor:5;
	conductor_N overhead_line_conductor:5;
	spacing line_spacing:11;
}

object line_configuration:39 {
	conductor_A underground_line_conductor:3;
	conductor_N underground_line_conductor:3;
	spacing line_spacing:17;
}

object line_configuration:40 {
	conductor_A overhead_line_conductor:5;
	conductor_B overhead_line_conductor:5;
	conductor_N overhead_line_conductor:5;
	spacing line_spacing:18;
}

object line_configuration:41 {
	conductor_B overhead_line_conductor:5;
	conductor_N overhead_line_conductor:5;
	spacing line_spacing:13;
}

object line_configuration:42 {
	conductor_B underground_line_conductor:3;
	conductor_N underground_line_conductor:3;
	spacing line_spacing:19;
}

object line_configuration:43 {
	conductor_B overhead_line_conductor:7;
	conductor_C overhead_line_conductor:7;
	conductor_N overhead_line_conductor:7;
	spacing line_spacing:20;
}

object line_configuration:44 {
	conductor_C overhead_line_conductor:9;
	conductor_N overhead_line_conductor:9;
	spacing line_spacing:16;
}

object line_configuration:45 {
	conductor_C overhead_line_conductor:7;
	conductor_N overhead_line_conductor:7;
	spacing line_spacing:16;
}

object line_configuration:46 {
	conductor_C overhead_line_conductor:8;
	conductor_N overhead_line_conductor:8;
	spacing line_spacing:16;
}

object line_configuration:47 {
	conductor_C overhead_line_conductor:8;
	conductor_N overhead_line_conductor:8;
	spacing line_spacing:21;
}

object line_configuration:48 {
	conductor_C underground_line_conductor:2;
	conductor_N underground_line_conductor:2;
	spacing line_spacing:14;
}

object line_configuration:49 {
	conductor_A overhead_line_conductor:10;
	conductor_B overhead_line_conductor:10;
	conductor_C overhead_line_conductor:10;
	conductor_N overhead_line_conductor:10;
	spacing line_spacing:12;
}

object line_configuration:50 {
	conductor_A overhead_line_conductor:8;
	conductor_N overhead_line_conductor:8;
	spacing line_spacing:11;
}

object line_configuration:51 {
	conductor_A overhead_line_conductor:8;
	conductor_B overhead_line_conductor:8;
	conductor_C overhead_line_conductor:8;
	conductor_N overhead_line_conductor:8;
	spacing line_spacing:22;
}

object line_configuration:52 {
	conductor_B overhead_line_conductor:8;
	conductor_N overhead_line_conductor:8;
	spacing line_spacing:13;
}

object line_configuration:53 {
	conductor_A underground_line_conductor:3;
	conductor_C underground_line_conductor:3;
	conductor_N underground_line_conductor:3;
	spacing line_spacing:23;
}

object line_configuration:54 {
	conductor_A underground_line_conductor:3;
	conductor_C underground_line_conductor:3;
	conductor_N underground_line_conductor:3;
	spacing line_spacing:24;
}

object line_configuration:55 {
	conductor_A overhead_line_conductor:8;
	conductor_C overhead_line_conductor:8;
	conductor_N overhead_line_conductor:8;
	spacing line_spacing:23;
}

object line_configuration:56 {
	conductor_A overhead_line_conductor:5;
	conductor_C overhead_line_conductor:5;
	conductor_N overhead_line_conductor:5;
	spacing line_spacing:23;
}

object line_configuration:57 {
	conductor_A overhead_line_conductor:7;
	conductor_N overhead_line_conductor:7;
	spacing line_spacing:11;
}

object line_configuration:58 {
	conductor_C underground_line_conductor:2;
	conductor_N underground_line_conductor:2;
	spacing line_spacing:16;
}


object line_spacing:11 {
	distance_AN 84.0 in;
}

object line_spacing:12 {
	distance_AB 57.6 in;
	distance_BC 57.6 in;
	distance_AC 57.6 in;
	distance_AN 84.0 in;
	distance_BN 84.0 in;
	distance_CN 84.0 in;
}

object line_spacing:13 {
	distance_BN 84.0 in;
}

object line_spacing:14 {
	distance_CN 0.0 in;
}

object line_spacing:15 {
	distance_AB 0.0 in;
	distance_BC 0.0 in;
	distance_AC 0.0 in;
	distance_AN 0.0 in;
	distance_BN 0.0 in;
	distance_CN 0.0 in;
}

object line_spacing:16 {
	distance_CN 84.0 in;
}

object line_spacing:17 {
	distance_AN 0.0 in;
}

object line_spacing:18 {
	distance_AB 57.6 in;
	distance_AN 84.0 in;
	distance_BN 84.0 in;
}

object line_spacing:19 {
	distance_BN 0.0 in;
}

object line_spacing:20 {
	distance_BC 57.6 in;
	distance_BN 84.0 in;
	distance_CN 84.0 in;
}

object line_spacing:21 {
	distance_CN 51.6 in;
}

object line_spacing:22 {
	distance_AB 57.6 in;
	distance_BC 57.6 in;
	distance_AC 57.6 in;
	distance_AN 51.6 in;
	distance_BN 51.6 in;
	distance_CN 51.6 in;
}

object line_spacing:23 {
	distance_AC 57.6 in;
	distance_AN 84.0 in;
	distance_CN 84.0 in;
}

object line_spacing:24 {
	distance_AC 0.0 in;
	distance_AN 0.0 in;
	distance_CN 0.0 in;
}


object load:382 {
	name R1-25-00-1_load_1;
	parent R1-25-00-1_meter_1;
	phases AN;
	voltage_A 14376.02+0.0j;
	constant_power_A 62.9109+5636.523j;
	nominal_voltage 14376.02;
	load_class A;
	// object recorder {
		// property voltage_A,voltage_B,voltage_C;
		// interval 60;
		// limit 1440;
		// file "382.csv";
	// };
	object complex_assert{
		target voltage_A;
		value +255.042-0.69286d;
		within 4;
	};
	object complex_assert{
		target voltage_B;
		value +0+0j;
		within 1;
	};
	object complex_assert{
		target voltage_C;
		value +0+0j;
		within 1;
	};
}

object load:383 {
	name R1-25-00-1_load_2;
	parent R1-25-00-1_meter_2;
	phases AN;
	voltage_A 14376.02+0.0j;
	constant_power_A 62.9109+5636.523j;
	nominal_voltage 14376.02;
	load_class A;
}

object load:384 {
	name R1-25-00-1_load_3;
	parent R1-25-00-1_meter_3;
	phases AN;
	voltage_A 14376.02+0.0j;
	constant_power_A 62.9109+5636.523j;
	nominal_voltage 14376.02;
	load_class A;
}

object load:385 {
	name R1-25-00-1_load_4;
	parent R1-25-00-1_meter_4;
	phases AN;
	voltage_A 14376.02+0.0j;
	constant_power_A 62.9109+5636.523j;
	nominal_voltage 14376.02;
	load_class A;
}

object load:386 {
	name R1-25-00-1_load_5;
	parent R1-25-00-1_meter_5;
	phases BN;
	voltage_B -7188.01-12450j;
	constant_power_B 427.0572+1972.0786j;
	nominal_voltage 14376.02;
	load_class A;
}

object load:387 {
	name R1-25-00-1_load_6;
	parent R1-25-00-1_meter_6;
	phases BN;
	voltage_B -7188.01-12450j;
	constant_power_B 427.0572+1972.0786j;
	nominal_voltage 14376.02;
	load_class A;
}

object load:388 {
	name R1-25-00-1_load_7;
	parent R1-25-00-1_meter_7;
	phases BN;
	voltage_B -7188.01-12450j;
	constant_power_B 427.0572+1972.0786j;
	nominal_voltage 14376.02;
	load_class A;
}

object load:389 {
	name R1-25-00-1_load_8;
	parent R1-25-00-1_meter_8;
	phases CN;
	voltage_C -7188.01+12450j;
	constant_power_C 719.6584+13657.753j;
	nominal_voltage 14376.02;
	load_class A;
}

object load:390 {
	name R1-25-00-1_load_9;
	parent R1-25-00-1_meter_9;
	phases AN;
	voltage_A 14376.02+0.0j;
	constant_power_A 62.9109+5636.523j;
	nominal_voltage 14376.02;
	load_class A;
}

object load:391 {
	name R1-25-00-1_load_10;
	parent R1-25-00-1_meter_10;
	phases ABCN;
	voltage_A 14376.02+0.0j;
	voltage_B -7188.01-12450j;
	voltage_C -7188.01+12450j;
	constant_power_A 188.7327+16909.5689j;
	constant_power_B 1281.1717+5916.2358j;
	constant_power_C 1079.4876+20486.6294j;
	nominal_voltage 14376.02;
	load_class C;
}

object load:392 {
	name R1-25-00-1_load_11;
	parent R1-25-00-1_meter_11;
	phases ABCN;
	voltage_A 14376.02+0.0j;
	voltage_B -7188.01-12450j;
	voltage_C -7188.01+12450j;
	constant_power_A 0+0j;
	constant_power_B 0+0j;
	constant_power_C 71.9658+1365.7753j;
	nominal_voltage 14376.02;
	load_class C;
}

object load:393 {
	name R1-25-00-1_load_12;
	parent R1-25-00-1_meter_12;
	phases ABCN;
	voltage_A 14376.02+0.0j;
	voltage_B -7188.01-12450j;
	voltage_C -7188.01+12450j;
	constant_power_A 0+0j;
	constant_power_B 0+0j;
	constant_power_C 359.8292+6828.8765j;
	nominal_voltage 14376.02;
	load_class C;
}

object load:394 {
	name R1-25-00-1_load_13;
	parent R1-25-00-1_meter_13;
	phases CN;
	voltage_C -7188.01+12450j;
	constant_power_C 359.8292+6828.8765j;
	nominal_voltage 14376.02;
	load_class C;
}

object load:395 {
	name R1-25-00-1_load_14;
	parent R1-25-00-1_meter_14;
	phases CN;
	voltage_C -7188.01+12450j;
	constant_power_C 2403.6591+45616.8949j;
	nominal_voltage 14376.02;
	load_class C;
}

object load:396 {
	name R1-25-00-1_load_15;
	parent R1-25-00-1_meter_15;
	phases CN;
	voltage_C -7188.01+12450j;
	constant_power_C 1079.4876+20486.6294j;
	nominal_voltage 14376.02;
	load_class C;
}

object load:397 {
	name R1-25-00-1_load_16;
	parent R1-25-00-1_meter_16;
	phases CN;
	voltage_C -7188.01+12450j;
	constant_power_C 539.7438+10243.3147j;
	nominal_voltage 14376.02;
	load_class C;
}

object load:398 {
	name R1-25-00-1_load_17;
	parent R1-25-00-1_meter_17;
	phases CN;
	voltage_C -7188.01+12450j;
	constant_power_C 1439.3168+27315.5059j;
	nominal_voltage 14376.02;
	load_class C;
}

object load:399 {
	name R1-25-00-1_load_18;
	parent R1-25-00-1_meter_18;
	phases ABCN;
	voltage_A 14376.02+0.0j;
	voltage_B -7188.01-12450j;
	voltage_C -7188.01+12450j;
	constant_power_A 25.1644+2254.6092j;
	constant_power_B 427.0572+1972.0786j;
	constant_power_C 647.6926+12291.9777j;
	nominal_voltage 14376.02;
	load_class C;
}

object load:400 {
	name R1-25-00-1_load_19;
	parent R1-25-00-1_meter_19;
	phases ABCN;
	voltage_A 14376.02+0.0j;
	voltage_B -7188.01-12450j;
	voltage_C -7188.01+12450j;
	constant_power_A 0+0j;
	constant_power_B 0+0j;
	constant_power_C 359.8292+6828.8765j;
	nominal_voltage 14376.02;
	load_class C;
}

object load:401 {
	name R1-25-00-1_load_20;
	parent R1-25-00-1_meter_20;
	phases ABCN;
	voltage_A 14376.02+0.0j;
	voltage_B -7188.01-12450j;
	voltage_C -7188.01+12450j;
	constant_power_A 125.8218+11273.0459j;
	constant_power_B 854.1145+3944.1572j;
	constant_power_C 719.6584+13657.753j;
	nominal_voltage 14376.02;
	load_class C;
}

object load:402 {
	name R1-25-00-1_load_21;
	parent R1-25-00-1_meter_21;
	phases ABCN;
	voltage_A 14376.02+0.0j;
	voltage_B -7188.01-12450j;
	voltage_C -7188.01+12450j;
	constant_power_A 0+0j;
	constant_power_B 0+0j;
	constant_power_C 215.8975+4097.3259j;
	nominal_voltage 14376.02;
	load_class C;
}

object load:403 {
	name R1-25-00-1_load_22;
	parent R1-25-00-1_meter_22;
	phases CN;
	voltage_C -7188.01+12450j;
	constant_power_C 143.9317+2731.5506j;
	nominal_voltage 14376.02;
	load_class A;
}

object load:404 {
	name R1-25-00-1_load_23;
	parent R1-25-00-1_meter_23;
	phases ABCN;
	voltage_A 14376.02+0.0j;
	voltage_B -7188.01-12450j;
	voltage_C -7188.01+12450j;
	constant_power_A 419.4067+37576.8949j;
	constant_power_B 2847.054+13147.217j;
	constant_power_C 2398.8518+45525.6611j;
	nominal_voltage 14376.02;
	load_class A;
}

object load:405 {
	name R1-25-00-1_load_24;
	parent R1-25-00-1_meter_24;
	phases ABCN;
	voltage_A 14376.02+0.0j;
	voltage_B -7188.01-12450j;
	voltage_C -7188.01+12450j;
	constant_power_A 94.3663+8454.7844j;
	constant_power_B 640.5859+2958.1179j;
	constant_power_C 539.7438+10243.3147j;
	nominal_voltage 14376.02;
	load_class A;
}

object load:406 {
	name R1-25-00-1_load_25;
	parent R1-25-00-1_meter_25;
	phases ABCN;
	voltage_A 14376.02+0.0j;
	voltage_B -7188.01-12450j;
	voltage_C -7188.01+12450j;
	constant_power_A 62.9109+5636.523j;
	constant_power_B 427.0572+1972.0786j;
	constant_power_C 359.8292+6828.8765j;
	nominal_voltage 14376.02;
	load_class A;
}

object load:407 {
	name R1-25-00-1_load_26;
	parent R1-25-00-1_meter_26;
	phases BN;
	voltage_B -7188.01-12450j;
	constant_power_B 427.0572+1972.0786j;
	nominal_voltage 14376.02;
	load_class A;
}

object load:408 {
	name R1-25-00-1_load_27;
	parent R1-25-00-1_meter_27;
	phases BN;
	voltage_B -7188.01-12450j;
	constant_power_B 2135.2862+9860.393j;
	nominal_voltage 14376.02;
	load_class A;
}

object load:409 {
	name R1-25-00-1_load_28;
	parent R1-25-00-1_meter_28;
	phases CN;
	voltage_C -7188.01+12450j;
	constant_power_C 359.8292+6828.8765j;
	nominal_voltage 14376.02;
	load_class A;
}

object load:410 {
	name R1-25-00-1_load_29;
	parent R1-25-00-1_meter_29;
	phases CN;
	voltage_C -7188.01+12450j;
	constant_power_C 4000+2000j;
	nominal_voltage 14376.02;
	load_class A;
}

object load:411 {
	name R1-25-00-1_load_30;
	parent R1-25-00-1_meter_30;
	phases CN;
	voltage_C -7188.01+12450j;
	constant_power_C 359.8292+6828.8765j;
	nominal_voltage 14376.02;
	load_class A;
}

object load:412 {
	name R1-25-00-1_load_31;
	parent R1-25-00-1_meter_31;
	phases CN;
	voltage_C -7188.01+12450j;
	constant_power_C 647.6926+12291.9777j;
	nominal_voltage 14376.02;
	load_class A;
}

object load:413 {
	name R1-25-00-1_load_32;
	parent R1-25-00-1_meter_32;
	phases CN;
	voltage_C -7188.01+12450j;
	constant_power_C 359.8292+6828.8765j;
	nominal_voltage 14376.02;
	load_class A;
}

object load:414 {
	name R1-25-00-1_load_33;
	parent R1-25-00-1_meter_33;
	phases CN;
	voltage_C -7188.01+12450j;
	constant_power_C 215.8975+4097.3259j;
	nominal_voltage 14376.02;
	load_class A;
}

object load:415 {
	name R1-25-00-1_load_34;
	parent R1-25-00-1_meter_34;
	phases CN;
	voltage_C -7188.01+12450j;
	constant_power_C 359.8292+6828.8765j;
	nominal_voltage 14376.02;
	load_class A;
}

object load:416 {
	name R1-25-00-1_load_35;
	parent R1-25-00-1_meter_35;
	phases CN;
	voltage_C -7188.01+12450j;
	constant_power_C 359.8292+6828.8765j;
	nominal_voltage 14376.02;
	load_class A;
}

object load:417 {
	name R1-25-00-1_load_36;
	parent R1-25-00-1_meter_36;
	phases CN;
	voltage_C -7188.01+12450j;
	constant_power_C 215.8975+4097.3259j;
	nominal_voltage 14376.02;
	load_class A;
}

object load:418 {
	name R1-25-00-1_load_37;
	parent R1-25-00-1_meter_37;
	phases CN;
	voltage_C -7188.01+12450j;
	constant_power_C 143.9317+2731.5506j;
	nominal_voltage 14376.02;
	load_class A;
}

object load:419 {
	name R1-25-00-1_load_38;
	parent R1-25-00-1_meter_38;
	phases CN;
	voltage_C -7188.01+12450j;
	constant_power_C 359.8292+6828.8765j;
	nominal_voltage 14376.02;
	load_class A;
}

object load:420 {
	name R1-25-00-1_load_39;
	parent R1-25-00-1_meter_39;
	phases CN;
	voltage_C -7188.01+12450j;
	constant_power_C 143.9317+2731.5506j;
	nominal_voltage 14376.02;
	load_class A;
}

object load:421 {
	name R1-25-00-1_load_40;
	parent R1-25-00-1_meter_40;
	phases CN;
	voltage_C -7188.01+12450j;
	constant_power_C 7196.5842+136577.5296j;
	nominal_voltage 14376.02;
	load_class A;
}

object load:422 {
	name R1-25-00-1_load_41;
	parent R1-25-00-1_meter_41;
	phases CN;
	voltage_C -7188.01+12450j;
	constant_power_C 143.9317+2731.5506j;
	nominal_voltage 14376.02;
	load_class A;
}

object load:423 {
	name R1-25-00-1_load_42;
	parent R1-25-00-1_meter_42;
	phases CN;
	voltage_C -7188.01+12450j;
	constant_power_C 143.9317+2731.5506j;
	nominal_voltage 14376.02;
	load_class A;
}

object load:424 {
	name R1-25-00-1_load_43;
	parent R1-25-00-1_meter_43;
	phases CN;
	voltage_C -7188.01+12450j;
	constant_power_C 359.8292+6828.8765j;
	nominal_voltage 14376.02;
	load_class A;
}

object load:425 {
	name R1-25-00-1_load_44;
	parent R1-25-00-1_meter_44;
	phases CN;
	voltage_C -7188.01+12450j;
	constant_power_C 359.8292+6828.8765j;
	nominal_voltage 14376.02;
	load_class A;
}

object load:426 {
	name R1-25-00-1_load_45;
	parent R1-25-00-1_meter_45;
	phases CN;
	voltage_C -7188.01+12450j;
	constant_power_C 1439.3168+27315.5059j;
	nominal_voltage 14376.02;
	load_class C;
}

object load:427 {
	name R1-25-00-1_load_46;
	parent R1-25-00-1_meter_46;
	phases AN;
	voltage_A 14376.02+0.0j;
	constant_power_A 37.7465+3381.9138j;
	nominal_voltage 14376.02;
	load_class A;
}

object load:428 {
	name R1-25-00-1_load_47;
	parent R1-25-00-1_meter_47;
	phases AN;
	voltage_A 14376.02+0.0j;
	constant_power_A 37.7465+3381.9138j;
	nominal_voltage 14376.02;
	load_class A;
}

object load:429 {
	name R1-25-00-1_load_48;
	parent R1-25-00-1_meter_48;
	phases ABCN;
	voltage_A 14376.02+0.0j;
	voltage_B -7188.01-12450j;
	voltage_C -7188.01+12450j;
	constant_power_A 100+11300j;
	constant_power_B 900+3900j;
	constant_power_C 700+13700j;
	nominal_voltage 14376.02;
	load_class I;
}

object load:430 {
	name R1-25-00-1_load_49;
	parent R1-25-00-1_meter_49;
	phases ABCN;
	voltage_A 14376.02+0.0j;
	voltage_B -7188.01-12450j;
	voltage_C -7188.01+12450j;
	constant_power_A 504000+200000j;
	constant_power_B 504000+200000j;
	constant_power_C 504000+200000j;
	nominal_voltage 14376.02;
	load_class I;
}

object load:431 {
	name R1-25-00-1_load_50;
	parent R1-25-00-1_meter_50;
	phases ABCN;
	voltage_A 14376.02+0.0j;
	voltage_B -7188.01-12450j;
	voltage_C -7188.01+12450j;
	constant_power_A 0+0j;
	constant_power_B 0+0j;
	constant_power_C 215.8975+4097.3259j;
	nominal_voltage 14376.02;
	load_class I;
}

object load:432 {
	name R1-25-00-1_load_51;
	parent R1-25-00-1_meter_51;
	phases ABCN;
	voltage_A 14376.02+0.0j;
	voltage_B -7188.01-12450j;
	voltage_C -7188.01+12450j;
	constant_power_A 1677.6244+150307.3541j;
	constant_power_B 11388.199+52588.789j;
	constant_power_C 9595.436+182103.1907j;
	nominal_voltage 14376.02;
	load_class I;
}

object load:433 {
	name R1-25-00-1_load_52;
	parent R1-25-00-1_meter_52;
	phases ABCN;
	voltage_A 14376.02+0.0j;
	voltage_B -7188.01-12450j;
	voltage_C -7188.01+12450j;
	constant_power_A 1258.2177+112730.4592j;
	constant_power_B 8541.145+39441.5721j;
	constant_power_C 7196.5842+136577.5296j;
	nominal_voltage 14376.02;
	load_class I;
}

object load:434 {
	name R1-25-00-1_load_53;
	parent R1-25-00-1_meter_53;
	phases CN;
	voltage_C -7188.01+12450j;
	constant_power_C 359.8292+6828.8765j;
	nominal_voltage 14376.02;
	load_class A;
}

object load:435 {
	name R1-25-00-1_load_54;
	parent R1-25-00-1_meter_54;
	phases CN;
	voltage_C -7188.01+12450j;
	constant_power_C 359.8292+6828.8765j;
	nominal_voltage 14376.02;
	load_class A;
}

object load:436 {
	name R1-25-00-1_load_55;
	parent R1-25-00-1_meter_55;
	phases CN;
	voltage_C -7188.01+12450j;
	constant_power_C 359.8292+6828.8765j;
	nominal_voltage 14376.02;
	load_class A;
}

object load:437 {
	name R1-25-00-1_load_56;
	parent R1-25-00-1_meter_56;
	phases CN;
	voltage_C -7188.01+12450j;
	constant_power_C 2518.8045+47802.1354j;
	nominal_voltage 14376.02;
	load_class A;
}

object load:438 {
	name R1-25-00-1_load_57;
	parent R1-25-00-1_meter_57;
	phases CN;
	voltage_C -7188.01+12450j;
	constant_power_C 359.8292+6828.8765j;
	nominal_voltage 14376.02;
	load_class A;
}

object load:439 {
	name R1-25-00-1_load_58;
	parent R1-25-00-1_meter_58;
	phases CN;
	voltage_C -7188.01+12450j;
	constant_power_C 359.8292+6828.8765j;
	nominal_voltage 14376.02;
	load_class A;
}

object load:440 {
	name R1-25-00-1_load_59;
	parent R1-25-00-1_meter_59;
	phases AN;
	voltage_A 14376.02+0.0j;
	constant_power_A 62.9109+5636.523j;
	nominal_voltage 14376.02;
	load_class C;
}

object load:441 {
	name R1-25-00-1_load_60;
	parent R1-25-00-1_meter_60;
	phases AN;
	voltage_A 14376.02+0.0j;
	constant_power_A 125.8218+11273.0459j;
	nominal_voltage 14376.02;
	load_class C;
}

object load:442 {
	name R1-25-00-1_load_61;
	parent R1-25-00-1_meter_61;
	phases ABCN;
	voltage_A 14376.02+0.0j;
	voltage_B -7188.01-12450j;
	voltage_C -7188.01+12450j;
	constant_power_A 125.8218+11273.0459j;
	constant_power_B 640.5859+2958.1179j;
	constant_power_C 719.6584+13657.753j;
	nominal_voltage 14376.02;
	load_class C;
}

object load:443 {
	name R1-25-00-1_load_62;
	parent R1-25-00-1_meter_62;
	phases BN;
	voltage_B -7188.01-12450j;
	constant_power_B 854.1145+3944.1572j;
	nominal_voltage 14376.02;
	load_class C;
}

object load:444 {
	name R1-25-00-1_load_63;
	parent R1-25-00-1_meter_63;
	phases BN;
	voltage_B -7188.01-12450j;
	constant_power_B 2861.2836+13212.9266j;
	nominal_voltage 14376.02;
	load_class C;
}

object load:445 {
	name R1-25-00-1_load_64;
	parent R1-25-00-1_meter_64;
	phases BN;
	voltage_B -7188.01-12450j;
	constant_power_B 2861.2836+13212.9266j;
	nominal_voltage 14376.02;
	load_class C;
}

object load:446 {
	name R1-25-00-1_load_65;
	parent R1-25-00-1_meter_65;
	phases BN;
	voltage_B -7188.01-12450j;
	constant_power_B 2861.2836+13212.9266j;
	nominal_voltage 14376.02;
	load_class C;
}

object load:447 {
	name R1-25-00-1_load_66;
	parent R1-25-00-1_meter_66;
	phases BN;
	voltage_B -7188.01-12450j;
	constant_power_B 427.0572+1972.0786j;
	nominal_voltage 14376.02;
	load_class C;
}

object load:448 {
	name R1-25-00-1_load_67;
	parent R1-25-00-1_meter_67;
	phases ACN;
	voltage_A 14376.02+0.0j;
	voltage_C -7188.01+12450j;
	constant_power_A 125.8218+11273.0459j;
	constant_power_C 0+0j;
	nominal_voltage 14376.02;
	load_class A;
}

object load:449 {
	name R1-25-00-1_load_68;
	parent R1-25-00-1_meter_68;
	phases AN;
	voltage_A 14376.02+0.0j;
	constant_power_A 188.7327+16909.5689j;
	nominal_voltage 14376.02;
	load_class A;
}

object load:450 {
	name R1-25-00-1_load_69;
	parent R1-25-00-1_meter_69;
	phases ACN;
	voltage_A 14376.02+0.0j;
	voltage_C -7188.01+12450j;
	constant_power_A 37.7465+3381.9138j;
	constant_power_C 0+0j;
	nominal_voltage 14376.02;
	load_class A;
}

object load:451 {
	name R1-25-00-1_load_70;
	parent R1-25-00-1_meter_70;
	phases AN;
	voltage_A 14376.02+0.0j;
	constant_power_A 62.9109+5636.523j;
	nominal_voltage 14376.02;
	load_class A;
}

object load:452 {
	name R1-25-00-1_load_71;
	parent R1-25-00-1_meter_71;
	phases AN;
	voltage_A 14376.02+0.0j;
	constant_power_A 88.0752+7891.1321j;
	nominal_voltage 14376.02;
	load_class A;
	// object recorder {
		// property voltage_A,voltage_B,voltage_C;
		// interval 60;
		// limit 1440;
		// file "452.csv";
	// };
	object complex_assert{
		target voltage_A;
		value +253.736-0.355467d;
		within 4;
	};
	object complex_assert{
		target voltage_B;
		value +0+0j;
		within 1;
	};
	object complex_assert{
		target voltage_C;
		value +0+0j;
		within 1;
	};
}

object load:453 {
	name R1-25-00-1_load_72;
	parent R1-25-00-1_meter_72;
	phases ACN;
	voltage_A 14376.02+0.0j;
	voltage_C -7188.01+12450j;
	constant_power_A 125.8218+11273.0459j;
	constant_power_C 0+0j;
	nominal_voltage 14376.02;
	load_class A;
}

object load:454 {
	name R1-25-00-1_load_73;
	parent R1-25-00-1_meter_73;
	phases ACN;
	voltage_A 14376.02+0.0j;
	voltage_C -7188.01+12450j;
	constant_power_A 201.3148+18036.8735j;
	constant_power_C 719.6584+13657.753j;
	nominal_voltage 14376.02;
	load_class A;
}

object load:455 {
	name R1-25-00-1_load_74;
	parent R1-25-00-1_meter_74;
	phases AN;
	voltage_A 14376.02+0.0j;
	constant_power_A 37.7465+3381.9138j;
	nominal_voltage 14376.02;
	load_class A;
}

object load:456 {
	name R1-25-00-1_load_75;
	parent R1-25-00-1_meter_75;
	phases AN;
	voltage_A 14376.02+0.0j;
	constant_power_A 62.9109+5636.523j;
	nominal_voltage 14376.02;
	load_class A;
}

object load:457 {
	name R1-25-00-1_load_76;
	parent R1-25-00-1_meter_76;
	phases AN;
	voltage_A 14376.02+0.0j;
	constant_power_A 37.7465+3381.9138j;
	nominal_voltage 14376.02;
	load_class A;
}

object load:458 {
	name R1-25-00-1_load_77;
	parent R1-25-00-1_meter_77;
	phases AN;
	voltage_A 14376.02+0.0j;
	constant_power_A 100.6574+9018.4367j;
	nominal_voltage 14376.02;
	load_class A;
}

object load:459 {
	name R1-25-00-1_load_78;
	parent R1-25-00-1_meter_78;
	phases AN;
	voltage_A 14376.02+0.0j;
	constant_power_A 37.7465+3381.9138j;
	nominal_voltage 14376.02;
	load_class A;
}

object load:460 {
	name R1-25-00-1_load_79;
	parent R1-25-00-1_meter_79;
	phases AN;
	voltage_A 14376.02+0.0j;
	constant_power_A 25.1644+2254.6092j;
	nominal_voltage 14376.02;
	load_class A;
}

object load:461 {
	name R1-25-00-1_load_80;
	parent R1-25-00-1_meter_80;
	phases AN;
	voltage_A 14376.02+0.0j;
	constant_power_A 125.8218+11273.0459j;
	nominal_voltage 14376.02;
	load_class A;
}

object load:462 {
	name R1-25-00-1_load_81;
	parent R1-25-00-1_meter_81;
	phases AN;
	voltage_A 14376.02+0.0j;
	constant_power_A 251.6435+22546.0918j;
	nominal_voltage 14376.02;
	load_class A;
}

object load:463 {
	name R1-25-00-1_load_82;
	parent R1-25-00-1_meter_82;
	phases AN;
	voltage_A 14376.02+0.0j;
	constant_power_A 62.9109+5636.523j;
	nominal_voltage 14376.02;
	load_class A;
}

object load:464 {
	name R1-25-00-1_load_83;
	parent R1-25-00-1_meter_83;
	phases AN;
	voltage_A 14376.02+0.0j;
	constant_power_A 37.7465+3381.9138j;
	nominal_voltage 14376.02;
	load_class A;
}

object load:465 {
	name R1-25-00-1_load_84;
	parent R1-25-00-1_meter_84;
	phases AN;
	voltage_A 14376.02+0.0j;
	constant_power_A 125.8218+11273.0459j;
	nominal_voltage 14376.02;
	load_class A;
}

object load:466 {
	name R1-25-00-1_load_85;
	parent R1-25-00-1_meter_85;
	phases AN;
	voltage_A 14376.02+0.0j;