// $Id: R4-12.47-2.glm
// 12.5 kV feeder
//*********************************************
// validates voltages with FBS at selected load, node, meter, triplex_node, and
// triplex_meter objects
//
// written by alek332
clock{
	timezone EST+8EDT;
	timestamp '2000-01-01 0:00:00';
	stoptime '2000-01-01 1:00:00';
}

#set profiler=1
//*********************************************
// modules

module assert;
module tape;
module powerflow{
	solver_method FBS;
	default_maximum_voltage_error 1e-9;
};
//*********************************************

object regulator:1595 {
	name R4-12-47-2_reg_1;
	from R4-12-47-2_node_273;
	to R4-12-47-2_meter_22;
	phases ABCN;
	configuration regulator_configuration:1596;
	object recorder {
		 property tap_A,tap_B,tap_C,power_in_A.real,power_in_A.imag,power_in_B.real,power_in_B.imag,power_in_C.real,power_in_C.imag,power_in.real,power_in.imag;
		 limit 144;
		 interval 60;
		 file "R4-12.27-2_reg_output.csv";
	};
}


object regulator_configuration:1596 {
	name feeder_reg_cfg;
	Control OUTPUT_VOLTAGE;
	band_center 7216.0;
	band_width 120;
	connect_type WYE_WYE;
	time_delay 30;
	raise_taps 16;
	lower_taps 16;
	regulation 0.10;
	tap_pos_A 0;
	tap_pos_B 0;
	tap_pos_C 0;
}


object fuse:1551 {
	name R4-12-47-2_fuse_1;
	phases AN;
	from R4-12-47-2_node_234;
	to R4-12-47-2_node_85;
	current_limit 75;
	status CLOSED;
}

object fuse:1552 {
	name R4-12-47-2_fuse_2;
	phases AN;
	from R4-12-47-2_node_45;
	to R4-12-47-2_node_79;
	current_limit 75;
	status CLOSED;
}

object fuse:1553 {
	name R4-12-47-2_fuse_3;
	phases CN;
	from R4-12-47-2_node_257;
	to R4-12-47-2_node_78;
	current_limit 50;
	status CLOSED;
}

object fuse:1554 {
	name R4-12-47-2_fuse_4;
	phases BN;
	from R4-12-47-2_node_44;
	to R4-12-47-2_node_80;
	current_limit 75;
	status CLOSED;
}

object fuse:1555 {
	name R4-12-47-2_fuse_5;
	phases BN;
	from R4-12-47-2_node_43;
	to R4-12-47-2_node_81;
	current_limit 75;
	status CLOSED;
}

object fuse:1556 {
	name R4-12-47-2_fuse_6;
	phases ABCN;
	from R4-12-47-2_node_230;
	to R4-12-47-2_node_82;
	current_limit 75;
	status CLOSED;
}

object fuse:1557 {
	name R4-12-47-2_fuse_7;
	phases BCN;
	from R4-12-47-2_node_15;
	to R4-12-47-2_node_84;
	current_limit 75;
	status CLOSED;
}

object fuse:1558 {
	name R4-12-47-2_fuse_8;
	phases CN;
	from R4-12-47-2_node_47;
	to R4-12-47-2_node_88;
	current_limit 30;
	status CLOSED;
}

object fuse:1559 {
	name R4-12-47-2_fuse_9;
	phases CN;
	from R4-12-47-2_node_110;
	to R4-12-47-2_node_89;
	current_limit 75;
	status CLOSED;
}

object fuse:1560 {
	name R4-12-47-2_fuse_10;
	phases CN;
	from R4-12-47-2_node_33;
	to R4-12-47-2_node_90;
	current_limit 75;
	status CLOSED;
}

object fuse:1561 {
	name R4-12-47-2_fuse_11;
	phases ACN;
	from R4-12-47-2_node_12;
	to R4-12-47-2_node_91;
	current_limit 75;
	status CLOSED;
}

object fuse:1562 {
	name R4-12-47-2_fuse_12;
	phases CN;
	from R4-12-47-2_node_53;
	to R4-12-47-2_node_71;
	current_limit 50;
	status CLOSED;
}

object fuse:1563 {
	name R4-12-47-2_fuse_13;
	phases AN;
	from R4-12-47-2_node_9;
	to R4-12-47-2_node_72;
	current_limit 75;
	status CLOSED;
}

object fuse:1564 {
	name R4-12-47-2_fuse_14;
	phases AN;
	from R4-12-47-2_node_9;
	to R4-12-47-2_node_87;
	current_limit 75;
	status CLOSED;
}

object fuse:1565 {
	name R4-12-47-2_fuse_15;
	phases BN;
	from R4-12-47-2_node_10;
	to R4-12-47-2_node_73;
	current_limit 75;
	status CLOSED;
}

object fuse:1566 {
	name R4-12-47-2_fuse_16;
	phases AN;
	from R4-12-47-2_node_10;
	to R4-12-47-2_node_74;
	current_limit 75;
	status CLOSED;
}

object fuse:1567 {
	name R4-12-47-2_fuse_17;
	phases BN;
	from R4-12-47-2_node_17;
	to R4-12-47-2_node_75;
	current_limit 60;
	status CLOSED;
}

object fuse:1568 {
	name R4-12-47-2_fuse_18;
	phases CN;
	from R4-12-47-2_node_17;
	to R4-12-47-2_node_76;
	current_limit 60;
	status CLOSED;
}

object fuse:1569 {
	name R4-12-47-2_fuse_19;
	phases AN;
	from R4-12-47-2_node_24;
	to R4-12-47-2_node_92;
	current_limit 75;
	status CLOSED;
}

object fuse:1570 {
	name R4-12-47-2_fuse_20;
	phases ABCN;
	from R4-12-47-2_node_24;
	to R4-12-47-2_node_93;
	current_limit 75;
	status CLOSED;
}

object fuse:1571 {
	name R4-12-47-2_fuse_21;
	phases ABCN;
	from R4-12-47-2_node_25;
	to R4-12-47-2_node_94;
	current_limit 75;
	status CLOSED;
}

object fuse:1572 {
	name R4-12-47-2_fuse_22;
	phases AN;
	from R4-12-47-2_node_25;
	to R4-12-47-2_node_95;
	current_limit 75;
	status CLOSED;
}

object fuse:1573 {
	name R4-12-47-2_fuse_23;
	phases BN;
	from R4-12-47-2_node_11;
	to R4-12-47-2_node_96;
	current_limit 75;
	status CLOSED;
}

object fuse:1574 {
	name R4-12-47-2_fuse_24;
	phases BN;
	from R4-12-47-2_node_11;
	to R4-12-47-2_node_97;
	current_limit 75;
	status CLOSED;
}

object fuse:1575 {
	name R4-12-47-2_fuse_25;
	phases BN;
	from R4-12-47-2_node_10;
	to R4-12-47-2_node_70;
	current_limit 80;
	status CLOSED;
}

object fuse:1576 {
	name R4-12-47-2_fuse_26;
	phases AN;
	from R4-12-47-2_node_41;
	to R4-12-47-2_node_77;
	current_limit 80;
	status CLOSED;
}

object fuse:1577 {
	name R4-12-47-2_fuse_27;
	phases BN;
	from R4-12-47-2_node_41;
	to R4-12-47-2_node_83;
	current_limit 80;
	status CLOSED;
}

object fuse:1578 {
	name R4-12-47-2_fuse_28;
	phases CN;
	from R4-12-47-2_node_41;
	to R4-12-47-2_node_86;
	current_limit 80;
	status CLOSED;
}


object line_configuration:26 {
	conductor_C overhead_line_conductor:2;
	conductor_N overhead_line_conductor:2;
	spacing line_spacing:11;
}

object line_configuration:27 {
	conductor_C overhead_line_conductor:3;
	conductor_N overhead_line_conductor:3;
	spacing line_spacing:11;
}

object line_configuration:28 {
	conductor_C overhead_line_conductor:4;
	conductor_N overhead_line_conductor:4;
	spacing line_spacing:11;
}

object line_configuration:29 {
	conductor_A overhead_line_conductor:2;
	conductor_N overhead_line_conductor:2;
	spacing line_spacing:12;
}

object line_configuration:30 {
	conductor_A overhead_line_conductor:2;
	conductor_B overhead_line_conductor:2;
	conductor_N overhead_line_conductor:2;
	spacing line_spacing:13;
}

object line_configuration:31 {
	conductor_A overhead_line_conductor:2;
	conductor_B overhead_line_conductor:2;
	conductor_N overhead_line_conductor:2;
	spacing line_spacing:14;
}

object line_configuration:32 {
	conductor_B overhead_line_conductor:2;
	conductor_N overhead_line_conductor:2;
	spacing line_spacing:15;
}

object line_configuration:33 {
	conductor_A overhead_line_conductor:3;
	conductor_B overhead_line_conductor:3;
	conductor_C overhead_line_conductor:3;
	conductor_N overhead_line_conductor:3;
	spacing line_spacing:16;
}

object line_configuration:34 {
	conductor_B overhead_line_conductor:2;
	conductor_C overhead_line_conductor:2;
	conductor_N overhead_line_conductor:2;
	spacing line_spacing:17;
}

object line_configuration:35 {
	conductor_C overhead_line_conductor:3;
	conductor_N overhead_line_conductor:3;
	spacing line_spacing:11;
}

object line_configuration:36 {
	conductor_A overhead_line_conductor:3;
	conductor_C overhead_line_conductor:3;
	conductor_N overhead_line_conductor:3;
	spacing line_spacing:18;
}

object line_configuration:37 {
	conductor_C underground_line_conductor:5;
	conductor_N underground_line_conductor:5;
	spacing line_spacing:19;
}

object line_configuration:38 {
	conductor_A underground_line_conductor:5;
	conductor_N underground_line_conductor:5;
	spacing line_spacing:20;
}

object line_configuration:39 {
	conductor_B underground_line_conductor:5;
	conductor_N underground_line_conductor:5;
	spacing line_spacing:21;
}

object line_configuration:40 {
	conductor_A underground_line_conductor:5;
	conductor_B underground_line_conductor:5;
	conductor_C underground_line_conductor:5;
	conductor_N underground_line_conductor:5;
	spacing line_spacing:22;
}

object line_configuration:41 {
	conductor_A overhead_line_conductor:6;
	conductor_B overhead_line_conductor:6;
	conductor_C overhead_line_conductor:6;
	conductor_N overhead_line_conductor:6;
	spacing line_spacing:23;
}

object line_configuration:42 {
	conductor_A overhead_line_conductor:6;
	conductor_B overhead_line_conductor:6;
	conductor_C overhead_line_conductor:6;
	conductor_N overhead_line_conductor:6;
	spacing line_spacing:16;
}

object line_configuration:43 {
	conductor_A overhead_line_conductor:6;
	conductor_B overhead_line_conductor:6;
	conductor_C overhead_line_conductor:6;
	conductor_N overhead_line_conductor:6;
	spacing line_spacing:24;
}

object line_configuration:44 {
	conductor_A overhead_line_conductor:7;
	conductor_B overhead_line_conductor:7;
	conductor_C overhead_line_conductor:7;
	conductor_N overhead_line_conductor:7;
	spacing line_spacing:23;
}

object line_configuration:45 {
	conductor_A overhead_line_conductor:8;
	conductor_B overhead_line_conductor:8;
	conductor_C overhead_line_conductor:8;
	conductor_N overhead_line_conductor:8;
	spacing line_spacing:16;
}

object line_configuration:46 {
	conductor_A overhead_line_conductor:8;
	conductor_B overhead_line_conductor:8;
	conductor_C overhead_line_conductor:8;
	conductor_N overhead_line_conductor:8;
	spacing line_spacing:23;
}

object line_configuration:47 {
	conductor_A overhead_line_conductor:3;
	conductor_C overhead_line_conductor:3;
	conductor_N overhead_line_conductor:3;
	spacing line_spacing:25;
}

object line_configuration:48 {
	conductor_C overhead_line_conductor:2;
	conductor_N overhead_line_conductor:2;
	spacing line_spacing:11;
}

object line_configuration:49 {
	conductor_A overhead_line_conductor:7;
	conductor_B overhead_line_conductor:7;
	conductor_N overhead_line_conductor:7;
	spacing line_spacing:14;
}

object line_configuration:50 {
	conductor_B underground_line_conductor:5;
	conductor_N underground_line_conductor:5;
	spacing line_spacing:15;
}

object line_configuration:51 {
	conductor_A underground_line_conductor:9;
	conductor_B underground_line_conductor:9;
	conductor_C underground_line_conductor:9;
	conductor_N underground_line_conductor:9;
	spacing line_spacing:22;
}

object line_configuration:52 {
	conductor_A underground_line_conductor:10;
	conductor_B underground_line_conductor:10;
	conductor_C underground_line_conductor:10;
	conductor_N underground_line_conductor:10;
	spacing line_spacing:22;
}

object line_configuration:53 {
	conductor_C underground_line_conductor:5;
	conductor_N underground_line_conductor:5;
	spacing line_spacing:11;
}


object line_spacing:11 {
	distance_CN 48.0 in;
}

object line_spacing:12 {
	distance_AN 48.0 in;
}

object line_spacing:13 {
	distance_AB 48.0 in;
	distance_AN 48.0 in;
	distance_BN 48.0 in;
}

object line_spacing:14 {
	distance_AB 51.6 in;
	distance_AN 48.0 in;
	distance_BN 48.0 in;
}

object line_spacing:15 {
	distance_BN 48.0 in;
}

object line_spacing:16 {
	distance_AB 57.6 in;
	distance_BC 57.6 in;
	distance_AC 57.6 in;
	distance_AN 48.0 in;
	distance_BN 48.0 in;
	distance_CN 48.0 in;
}

object line_spacing:17 {
	distance_BC 51.6 in;
	distance_BN 48.0 in;
	distance_CN 48.0 in;
}

object line_spacing:18 {
	distance_AC 51.6 in;
	distance_AN 48.0 in;
	distance_CN 48.0 in;
}

object line_spacing:19 {
	distance_CN 0.0 in;
}

object line_spacing:20 {
	distance_AN 0.0 in;
}

object line_spacing:21 {
	distance_BN 0.0 in;
}

object line_spacing:22 {
	distance_AB 0.0 in;
	distance_BC 0.0 in;
	distance_AC 0.0 in;
	distance_AN 0.0 in;
	distance_BN 0.0 in;
	distance_CN 0.0 in;
}

object line_spacing:23 {
	distance_AB 48.0 in;
	distance_BC 48.0 in;
	distance_AC 48.0 in;
	distance_AN 48.0 in;
	distance_BN 48.0 in;
	distance_CN 48.0 in;
}

object line_spacing:24 {
	distance_AB 46.3 in;
	distance_BC 46.3 in;
	distance_AC 46.3 in;
	distance_AN 48.0 in;
	distance_BN 48.0 in;
	distance_CN 48.0 in;
}

object line_spacing:25 {
	distance_AC 48.0 in;
	distance_AN 48.0 in;
	distance_CN 48.0 in;
}


object load:326 {
	name R4-12-47-2_load_1;
	parent R4-12-47-2_meter_1;
	phases AN;
	voltage_A 7216.88+0.0j;
	constant_power_A 4000+2000j;
	nominal_voltage 7216.88;
	load_class C;
}

object load:327 {
	name R4-12-47-2_load_2;
	parent R4-12-47-2_meter_2;
	phases ABN;
	voltage_A 7216.88+0.0j;
	voltage_B -3608.44-6250j;
	constant_power_A 1500+304.65j;
	constant_power_B 1500+304.65j;
	nominal_voltage 7216.88;
	load_class C;
}

object load:328 {
	name R4-12-47-2_load_3;
	parent R4-12-47-2_meter_3;
	phases BN;
	voltage_B -3608.44-6250j;
	constant_power_B 4000+2000j;
	nominal_voltage 7216.88;
	load_class C;
}

object load:329 {
	name R4-12-47-2_load_4;
	parent R4-12-47-2_meter_4;
	phases BN;
	voltage_B -3608.44-6250j;
	constant_power_B 4000+2000j;
	nominal_voltage 7216.88;
	load_class C;
// object recorder {
		// property voltage_A,voltage_B,voltage_C;
		// interval 60;
		// limit 1440;
		// file "329.csv";
	// };
	object complex_assert{
		target voltage_A;
		value +0+0j;
		within 1;
	};
	object complex_assert{
		target voltage_B;
		value -145.934-219.178j;
		within 1;
	};
	object complex_assert{
		target voltage_C;
		value +0+0j;
		within 1;
	};	
}

object load:330 {
	name R4-12-47-2_load_5;
	parent R4-12-47-2_meter_5;
	phases BN;
	voltage_B -3608.44-6250j;
	constant_power_B 2000+406.2j;
	nominal_voltage 7216.88;
	load_class C;
}

object load:331 {
	name R4-12-47-2_load_6;
	parent R4-12-47-2_meter_6;
	phases BN;
	voltage_B -3608.44-6250j;
	constant_power_B 4000+812.4j;
	nominal_voltage 7216.88;
	load_class C;
}

object load:332 {
	name R4-12-47-2_load_7;
	parent R4-12-47-2_meter_7;
	phases BN;
	voltage_B -3608.44-6250j;
	constant_power_B 4000+812.4j;
	nominal_voltage 7216.88;
	load_class C;
}

object load:333 {
	name R4-12-47-2_load_8;
	parent R4-12-47-2_meter_8;
	phases AN;
	voltage_A 7216.88+0.0j;
	constant_power_A 11000+2234.1j;
	nominal_voltage 7216.88;
	load_class C;
}

object load:334 {
	name R4-12-47-2_load_9;
	parent R4-12-47-2_meter_9;
	phases ABCN;
	voltage_A 7216.88+0.0j;
	voltage_B -3608.44-6250j;
	voltage_C -3608.44+6250j;
	constant_power_A 666.6667+135.4j;
	constant_power_B 666.6667+135.4j;
	constant_power_C 666.6667+135.4j;
	nominal_voltage 7216.88;
	load_class C;
}

object load:335 {
	name R4-12-47-2_load_10;
	parent R4-12-47-2_meter_10;
	phases ABCN;
	voltage_A 7216.88+0.0j;
	voltage_B -3608.44-6250j;
	voltage_C -3608.44+6250j;
	constant_power_A 1666.6667+338.5j;
	constant_power_B 1666.6667+338.5j;
	constant_power_C 1666.6667+338.5j;
	nominal_voltage 7216.88;
	load_class C;
}

object load:336 {
	name R4-12-47-2_load_11;
	parent R4-12-47-2_meter_11;
	phases AN;
	voltage_A 7216.88+0.0j;
	constant_power_A 4000+812.4j;
	nominal_voltage 7216.88;
	load_class C;
}

object load:337 {
	name R4-12-47-2_load_12;
	parent R4-12-47-2_meter_12;
	phases ABCN;
	voltage_A 7216.88+0.0j;
	voltage_B -3608.44-6250j;
	voltage_C -3608.44+6250j;
	constant_power_A 333.3333+67.7j;
	constant_power_B 333.3333+67.7j;
	constant_power_C 333.3333+67.7j;
	nominal_voltage 7216.88;
	load_class C;
}

object load:338 {
	name R4-12-47-2_load_13;
	parent R4-12-47-2_meter_13;
	phases ABCN;
	voltage_A 7216.88+0.0j;
	voltage_B -3608.44-6250j;
	voltage_C -3608.44+6250j;
	constant_power_A 3000+609.3j;
	constant_power_B 0+0j;
	constant_power_C 0+0j;
	nominal_voltage 7216.88;
	load_class C;
}

object load:339 {
	name R4-12-47-2_load_14;
	parent R4-12-47-2_meter_14;
	phases ABCN;
	voltage_A 7216.88+0.0j;
	voltage_B -3608.44-6250j;
	voltage_C -3608.44+6250j;
	constant_power_A 10000+2031j;
	constant_power_B 10000+2031j;
	constant_power_C 10000+2031j;
	nominal_voltage 7216.88;
	load_class C;
}

object load:340 {
	name R4-12-47-2_load_15;
	parent R4-12-47-2_meter_15;
	phases CN;
	voltage_C -3608.44+6250j;
	constant_power_C 4000+2000j;
	nominal_voltage 7216.88;
	load_class C;
}

object load:341 {
	name R4-12-47-2_load_16;
	parent R4-12-47-2_meter_16;
	phases ABCN;
	voltage_A 7216.88+0.0j;
	voltage_B -3608.44-6250j;
	voltage_C -3608.44+6250j;
	constant_power_A 12333.3333+2504.9j;
	constant_power_B 12333.3333+2504.9j;
	constant_power_C 12333.3333+2504.9j;
	nominal_voltage 7216.88;
	load_class C;
}

object load:342 {
	name R4-12-47-2_load_17;
	parent R4-12-47-2_meter_17;
	phases ABCN;
	voltage_A 7216.88+0.0j;
	voltage_B -3608.44-6250j;
	voltage_C -3608.44+6250j;
	constant_power_A 500+101.55j;
	constant_power_B 0+0j;
	constant_power_C 500+101.55j;
	nominal_voltage 7216.88;
	load_class C;
}

object load:343 {
	name R4-12-47-2_load_18;
	parent R4-12-47-2_meter_18;
	phases ABCN;
	voltage_A 7216.88+0.0j;
	voltage_B -3608.44-6250j;
	voltage_C -3608.44+6250j;
	constant_power_A 4000+812.4j;
	constant_power_B 4000+812.4j;
	constant_power_C 4000+812.4j;
	nominal_voltage 7216.88;
	load_class C;
}

object load:344 {
	name R4-12-47-2_load_19;
	parent R4-12-47-2_meter_19;
	phases CN;
	voltage_C -3608.44+6250j;
	constant_power_C 6000+1218.6j;
	nominal_voltage 7216.88;
	load_class C;
}

object load:345 {
	name R4-12-47-2_load_20;
	parent R4-12-47-2_meter_20;
	phases ABCN;
	voltage_A 7216.88+0.0j;
	voltage_B -3608.44-6250j;
	voltage_C -3608.44+6250j;
	constant_power_A 7333.3333+1489.4j;
	constant_power_B 7333.3333+1489.4j;
	constant_power_C 7333.3333+1489.4j;
	nominal_voltage 7216.88;
	load_class C;
// object recorder {
		// property voltage_A,voltage_B,voltage_C;
		// interval 60;
		// limit 1440;
		// file "345.csv";
	// };
	object complex_assert{
		target voltage_A;
		value +274.488-2.47644j;
		within 1;
	};
	object complex_assert{
		target voltage_B;
		value -140.583-236.514j;
		within 1;
	};
	object complex_assert{
		target voltage_C;
		value -137.234+239.994j;
		within 1;
	};	
}

object load:346 {
	name R4-12-47-2_load_21;
	parent R4-12-47-2_meter_21;
	phases ABCN;
	voltage_A 7216.88+0.0j;
	voltage_B -3608.44-6250j;
	voltage_C -3608.44+6250j;
	constant_power_A 22000+4468.2j;
	constant_power_B 0+0j;
	constant_power_C 0+0j;
	nominal_voltage 7216.88;
	load_class C;
}


object meter:875 {
	name R4-12-47-2_meter_1;
	phases AN;
	voltage_A 7216.88+0.0j;
	nominal_voltage 7216.88;
}

object meter:876 {
	name R4-12-47-2_meter_2;
	phases ABN;
	voltage_A 7216.88+0.0j;
	voltage_B -3608.44-6250j;
	nominal_voltage 7216.88;
// object recorder {
		// property voltage_A,voltage_B,voltage_C;
		// interval 60;
		// limit 1440;
		// file "876.csv";
	// };
	object complex_assert{
		target voltage_A;
		value +274.788-0.421123d;
		within 1;
	};
	object complex_assert{
		target voltage_B;
		value -140.315-236.928j;
		within 1;
	};
	object complex_assert{
		target voltage_C;
		value +0+0j;
		within 1;
	};	
}

object meter:877 {
	name R4-12-47-2_meter_3;
	phases BN;
	voltage_B -3608.44-6250j;
	nominal_voltage 7216.88;
}

object meter:878 {
	name R4-12-47-2_meter_4;
	phases BN;
	voltage_B -3608.44-6250j;
	nominal_voltage 7216.88;
}

object meter:879 {
	name R4-12-47-2_meter_5;
	phases BN;
	voltage_B -3608.44-6250j;
	nominal_voltage 7216.88;
}

object meter:880 {
	name R4-12-47-2_meter_6;
	phases BN;
	voltage_B -3608.44-6250j;
	nominal_voltage 7216.88;
}

object meter:881 {
	name R4-12-47-2_meter_7;
	phases BN;
	voltage_B -3608.44-6250j;
	nominal_voltage 7216.88;
}

object meter:882 {
	name R4-12-47-2_meter_8;
	phases AN;
	voltage_A 7216.88+0.0j;
	nominal_voltage 7216.88;
}

object meter:883 {
	name R4-12-47-2_meter_9;
	phases ABCN;
	voltage_A 7216.88+0.0j;
	voltage_B -3608.44-6250j;
	voltage_C -3608.44+6250j;
	nominal_voltage 7216.88;
}

object meter:884 {
	name R4-12-47-2_meter_10;
	phases ABCN;
	voltage_A 7216.88+0.0j;
	voltage_B -3608.44-6250j;
	voltage_C -3608.44+6250j;
	nominal_voltage 7216.88;
}

object meter:885 {
	name R4-12-47-2_meter_11;
	phases AN;
	voltage_A 7216.88+0.0j;
	nominal_voltage 7216.88;
}

object meter:886 {
	name R4-12-47-2_meter_12;
	phases ABCN;
	voltage_A 7216.88+0.0j;
	voltage_B -3608.44-6250j;
	voltage_C -3608.44+6250j;
	nominal_voltage 7216.88;
}

object meter:887 {
	name R4-12-47-2_meter_13;
	phases ABCN;
	voltage_A 7216.88+0.0j;
	voltage_B -3608.44-6250j;
	voltage_C -3608.44+6250j;
	nominal_voltage 7216.88;
}

object meter:888 {
	name R4-12-47-2_meter_14;
	phases ABCN;
	voltage_A 7216.88+0.0j;
	voltage_B -3608.44-6250j;
	voltage_C -3608.44+6250j;
	nominal_voltage 7216.88;
}

object meter:889 {
	name R4-12-47-2_meter_15;
	phases CN;
	voltage_C -3608.44+6250j;
	nominal_voltage 7216.88;
}

object meter:890 {
	name R4-12-47-2_meter_16;
	phases ABCN;
	voltage_A 7216.88+0.0j;
	voltage_B -3608.44-6250j;
	voltage_C -3608.44+6250j;
	nominal_voltage 7216.88;
}

object meter:891 {
	name R4-12-47-2_meter_17;
	phases ABCN;
	voltage_A 7216.88+0.0j;
	voltage_B -3608.44-6250j;
	voltage_C -3608.44+6250j;
	nominal_voltage 7216.88;
}

object meter:892 {
	name R4-12-47-2_meter_18;
	phases ABCN;
	voltage_A 7216.88+0.0j;
	voltage_B -3608.44-6250j;
	voltage_C -3608.44+6250j;
	nominal_voltage 7216.88;
}

object meter:893 {
	name R4-12-47-2_meter_19;
	phases CN;
	voltage_C -3608.44+6250j;
	nominal_voltage 7216.88;
}

object meter:894 {
	name R4-12-47-2_meter_20;
	phases ABCN;
	voltage_A 7216.88+0.0j;
	voltage_B -3608.44-6250j;
	voltage_C -3608.44+6250j;
	nominal_voltage 7216.88;
// object recorder {
		// property voltage_A,voltage_B,voltage_C;
		// interval 60;
		// limit 1440;
		// file "894.csv";
	// };
	object complex_assert{
		target voltage_A;
		value +274.488-2.47644j;
		within 1;
	};
	object complex_assert{
		target voltage_B;
		value -140.583-236.514j;
		within 1;
	};
	object complex_assert{
		target voltage_C;
		value -137.234+239.994j;
		within 1;
	};	
}

object meter:895 {
	name R4-12-47-2_meter_21;
	phases ABCN;
	voltage_A 7216.88+0.0j;
	voltage_B -3608.44-6250j;
	voltage_C -3608.44+6250j;
	nominal_voltage 7216.88;
}

// Meter at feeder
object meter:1594 {
	name R4-12-47-2_meter_22;
	phases ABCN;
	nominal_voltage 7216.88; 
	voltage_A 7216.88+0.0j;
	voltage_B -3608.44-6250j;
	voltage_C -3608.44+6250j;
}


object node:54 {
	name R4-12-47-2_node_1;
	phases BN;
	voltage_B -3608.44-6250j;
	nominal_voltage 7216.88;
}

object node:55 {
	name R4-12-47-2_node_2;
	phases BN;
	voltage_B -3608.44-6250j;
	nominal_voltage 7216.88;
}

object node:56 {
	name R4-12-47-2_node_3;
	phases BN;
	voltage_B -3608.44-6250j;
	nominal_voltage 7216.88;
}

object node:57 {
	name R4-12-47-2_node_4;
	phases BN;
	voltage_B -3608.44-6250j;
	nominal_voltage 7216.88;
}

object node:58 {
	name R4-12-47-2_node_5;
	phases AN;
	voltage_A 7216.88+0.0j;
	nominal_voltage 7216.88;
}

object node:59 {
	name R4-12-47-2_node_6;
	phases AN;
	voltage_A 7216.88+0.0j;
	nominal_voltage 7216.88;
}

object node:60 {
	name R4-12-47-2_node_7;
	phases BN;
	voltage_B -3608.44-6250j;
	nominal_voltage 7216.88;
}

object node:61 {
	name R4-12-47-2_node_8;
	phases BN;
	voltage_B -3608.44-6250j;
	nominal_voltage 7216.88;
}

object node:62 {
	name R4-12-47-2_node_9;
	phases AN;
	voltage_A 7216.88+0.0j;
	nominal_voltage 7216.88;
}

object node:63 {
	name R4-12-47-2_node_10;
	phases ABN;
	voltage_A 7216.88+0.0j;
	voltage_B -3608.44-6250j;
	nominal_voltage 7216.88;
}

object node:64 {
	name R4-12-47-2_node_11;
	phases BN;
	voltage_B -3608.44-6250j;
	nominal_voltage 7216.88;
}

object node:65 {
	name R4-12-47-2_node_12;
	phases ABCN;
	voltage_A 7216.88+0.0j;
	voltage_B -3608.44-6250j;
	voltage_C -3608.44+6250j;
	nominal_voltage 7216.88;
}

object node:66 {
	name R4-12-47-2_node_13;
	phases ABCN;
	voltage_A 7216.88+0.0j;
	voltage_B -3608.44-6250j;
	voltage_C -3608.44+6250j;
	nominal_voltage 7216.88;
}

object node:67 {
	name R4-12-47-2_node_14;
	phases ABCN;
	voltage_A 7216.88+0.0j;
	voltage_B -3608.44-6250j;
	voltage_C -3608.44+6250j;
	nominal_voltage 7216.88;
}

object node:68 {
	name R4-12-47-2_node_15;
	phases ABCN;
	voltage_A 7216.88+0.0j;
	voltage_B -3608.44-6250j;
	voltage_C -3608.44+6250j;
	nominal_voltage 7216.88;
}

object node:69 {
	name R4-12-47-2_node_16;
	phases ABCN;
	voltage_A 7216.88+0.0j;
	voltage_B -3608.44-6250j;
	voltage_C -3608.44+6250j;
	nominal_voltage 7216.88;
}

object node:70 {
	name R4-12-47-2_node_17;
	phases BCN;
	voltage_B -3608.44-6250j;
	voltage_C -3608.44+6250j;
	nominal_voltage 7216.88;
}

object node:71 {
	name R4-12-47-2_node_18;
	phases ABCN;
	voltage_A 7216.88+0.0j;
	voltage_B -3608.44-6250j;
	voltage_C -3608.44+6250j;
	nominal_voltage 7216.88;
}

object node:72 {
	name R4-12-47-2_node_19;
	phases ABCN;
	voltage_A 7216.88+0.0j;
	voltage_B -3608.44-6250j;
	voltage_C -3608.44+6250j;
	nominal_voltage 7216.88;
}

object node:73 {
	name R4-12-47-2_node_20;
	phases ABCN;
	voltage_A 7216.88+0.0j;
	voltage_B -3608.44-6250j;
	voltage_C -3608.44+6250j;
	nominal_voltage 7216.88;
}

object node:74 {
	name R4-12-47-2_node_21;
	phases ABCN;
	voltage_A 7216.88+0.0j;
	voltage_B -3608.44-6250j;
	voltage_C -3608.44+6250j;
	nominal_voltage 7216.88;
}

object node:75 {
	name R4-12-47-2_node_22;
	phases ABCN;
	voltage_A 7216.88+0.0j;
	voltage_B -3608.44-6250j;
	voltage_C -3608.44+6250j;
	nominal_voltage 7216.88;
}

object node:76 {
	name R4-12-47-2_node_23;
	phases ABCN;
	voltage_A 7216.88+0.0j;
	voltage_B -3608.44-6250j;
	voltage_C -3608.44+6250j;
	nominal_voltage 7216.88;
}

object node:77 {
	name R4-12-47-2_node_24;
	phases ABCN;
	voltage_A 7216.88+0.0j;
	voltage_B -3608.44-6250j;
	voltage_C -3608.44+6250j;
	nominal_voltage 7216.88;
	// object recorder {
		// property voltage_A,voltage_B,voltage_C;
		// interval 60;
		// limit 1440;
		// file "77.csv";
	// };
	object complex_assert{
		target voltage_A;
		value +7154.37-50.4084j;
		within 1;
	};
	object complex_assert{
		target voltage_B;
		value -3652.07-6171.07j;
		within 1;
	};
	object complex_assert{
		target voltage_C;
		value -3588.42+6248.21j;
		within 1;
	};	
}

object node:78 {
	name R4-12-47-2_node_25;
	phases ABCN;
	voltage_A 7216.88+0.0j;
	voltage_B -3608.44-6250j;
	voltage_C -3608.44+6250j;
	nominal_voltage 7216.88;
}

object node:79 {
	name R4-12-47-2_node_26;
	phases ABCN;
	voltage_A 7216.88+0.0j;
	voltage_B -3608.44-6250j;
	voltage_C -3608.44+6250j;
	nominal_voltage 7216.88;
}

object node:80 {
	name R4-12-47-2_node_27;
	phases ABCN;
	voltage_A 7216.88+0.0j;
	voltage_B -3608.44-6250j;
	voltage_C -3608.44+6250j;
	nominal_voltage 7216.88;
}

object node:81 {
	name R4-12-47-2_node_28;
	phases ABCN;
	voltage_A 7216.88+0.0j;
	voltage_B -3608.44-6250j;
	voltage_C -3608.44+6250j;
	nominal_voltage 7216.88;
}

object node:82 {
	name R4-12-47-2_node_29;
	phases BN;
	voltage_B -3608.44-6250j;
	nominal_voltage 7216.88;
}

object node:83 {
	name R4-12-47-2_node_30;
	phases BN;
	voltage_B -3608.44-6250j;
	nominal_voltage 7216.88;
}

object node:84 {
	name R4-12-47-2_node_31;
	phases AN;
	voltage_A 7216.88+0.0j;
	nominal_voltage 7216.88;
}

object node:85 {
	name R4-12-47-2_node_32;
	phases ABCN;
	voltage_A 7216.88+0.0j;
	voltage_B -3608.44-6250j;
	voltage_C -3608.44+6250j;
	nominal_voltage 7216.88;
}

object node:86 {
	name R4-12-47-2_node_33;
	phases ABCN;
	voltage_A 7216.88+0.0j;
	voltage_B -3608.44-6250j;
	voltage_C -3608.44+6250j;
	nominal_voltage 7216.88;
}

object node:87 {
	name R4-12-47-2_node_34;
	phases CN;
	voltage_C -3608.44+6250j;
	nominal_voltage 7216.88;
}

object node:88 {
	name R4-12-47-2_node_35;
	phases ABCN;
	voltage_A 7216.88+0.0j;
	voltage_B -3608.44-6250j;
	voltage_C -3608.44+6250j;
	nominal_voltage 7216.88;
}

object node:89 {
	name R4-12-47-2_node_36;
	phases BN;
	voltage_B -3608.44-6250j;
	nominal_voltage 7216.88;
}

object node:90 {
	name R4-12-47-2_node_37;
	phases AN;
	voltage_A 7216.88+0.0j;
	nominal_voltage 7216.88;
}

object node:91 {
	name R4-12-47-2_node_38;
	phases AN;
	voltage_A 7216.88+0.0j;
	nominal_voltage 7216.88;
}

object node:92 {
	name R4-12-47-2_node_39;
	phases CN;
	voltage_C -3608.44+6250j;
	nominal_voltage 7216.88;
}

object node:93 {
	name R4-12-47-2_node_40;
	phases ABCN;
	voltage_A 7216.88+0.0j;
	voltage_B -3608.44-6250j;
	voltage_C -3608.44+6250j;
	nominal_voltage 7216.88;
}

object node:94 {
	name R4-12-47-2_node_41;
	phases ABCN;
	voltage_A 7216.88+0.0j;
	voltage_B -3608.44-6250j;
	voltage_C -3608.44+6250j;
	nominal_voltage 7216.88;
}

object node:95 {
	name R4-12-47-2_node_42;
	phases ABCN;
	voltage_A 7216.88+0.0j;
	voltage_B -3608.44-6250j;
	voltage_C -3608.44+6250j;
	nominal_voltage 7216.88;
}

object node:96 {
	name R4-12-47-2_node_43;
	phases ABCN;
	voltage_A 7216.88+0.0j;
	voltage_B -3608.44-6250j;
	voltage_C -3608.44+6250j;
	nominal_voltage 7216.88;
}

object node:97 {
	name R4-12-47-2_node_44;
	phases ABCN;
	voltage_A 7216.88+0.0j;
	voltage_B -3608.44-6250j;
	voltage_C -3608.44+6250j;
	nominal_voltage 7216.88;
}

object node:98 {
	name R4-12-47-2_node_45;
	phases ABCN;
	voltage_A 7216.88+0.0j;
	voltage_B -3608.44-6250j;
	voltage_C -3608.44+6250j;
	nominal_voltage 7216.88;
}

object node:99 {
	name R4-12-47-2_node_46;
	phases CN;
	voltage_C -3608.44+6250j;
	nominal_voltage 7216.88;
}

object node:100 {
	name R4-12-47-2_node_47;
	phases CN;
	voltage_C -3608.44+6250j;
	nominal_voltage 7216.88;
}

object node:101 {
	name R4-12-47-2_node_48;
	phases CN;
	voltage_C -3608.44+6250j;
	nominal_voltage 7216.88;
}

object node:102 {
	name R4-12-47-2_node_49;
	phases CN;
	voltage_C -3608.44+6250j;
	nominal_voltage 7216.88;
}

object node:103 {
	name R4-12-47-2_node_50;
	phases CN;
	voltage_C -3608.44+6250j;
	nominal_voltage 7216.88;
}

object node:104 {
	name R4-12-47-2_node_51;
	phases CN;
	voltage_C -3608.44+6250j;
	nominal_voltage 7216.88;
}

object node:105 {
	name R4-12-47-2_node_52;
	phases CN;
	voltage_C -3608.44+6250j;
	nominal_voltage 7216.88;
}

object node:106 {
	name R4-12-47-2_node_53;
	phases CN;
	voltage_C -3608.44+6250j;
	nominal_voltage 7216.88;
}

object node:107 {
	name R4-12-47-2_node_54;
	phases AN;
	voltage_A 7216.88+0.0j;
	nominal_voltage 7216.88;
}

object node:108 {
	name R4-12-47-2_node_55;
	phases CN;
	voltage_C -3608.44+6250j;
	nominal_voltage 7216.88;
}

object node:109 {
	name R4-12-47-2_node_56;
	phases CN;
	voltage_C -3608.44+6250j;
	nominal_voltage 7216.88;
}

object node:110 {
	name R4-12-47-2_node_57;
	phases AN;
	voltage_A 7216.88+0.0j;
	nominal_voltage 7216.88;
}

object node:111 {
	name R4-12-47-2_node_58;
	phases BN;
	voltage_B -3608.44-6250j;
	nominal_voltage 7216.88;
}

object node:112 {
	name R4-12-47-2_node_59;
	phases CN;
	voltage_C -3608.44+6250j;
	nominal_voltage 7216.88;
}

object node:113 {
	name R4-12-47-2_node_60;
	phases ABCN;
	voltage_A 7216.88+0.0j;
	voltage_B -3608.44-6250j;