// $Id: R2-12.47-2.glm 
// 12.47 kV feeder
//*********************************************
// validates voltages with NR at selected load, node, meter, triplex_node, and
// triplex_meter objects

// search for @IMPORTANT to find the nodes whose values are off on the
// first calculation

// created by: alek332
clock{
	timezone EST+8EDT;
	timestamp '2000-01-01 0:00:00';
	stoptime '2000-01-01 1:00:00';
}

#set profiler=1
//*********************************************
// modules

module tape;
module powerflow{
	solver_method NR;
	default_maximum_voltage_error 1e-9;
};
module assert;
//*********************************************

object regulator:1615 {
	name R2-12-47-2_reg_1;
	from R2-12-47-2_node_253;
	to R2-12-47-2_meter_9;
	phases ABCN;
	configuration regulator_configuration:1616;
	// object recorder {
		 // property tap_A,tap_B,tap_C,power_in_A.real,power_in_A.imag,power_in_B.real,power_in_B.imag,power_in_C.real,power_in_C.imag,power_in.real,power_in.imag;
		 // limit 1440;
		 // interval 60;
		 // file "R2-12.27-2_reg_output.csv";
	// };
}


object regulator_configuration:1616 {
	name feeder_reg_cfg;
	Control OUTPUT_VOLTAGE;
	band_center 7200.0;
	band_width 120;
	connect_type WYE_WYE;
	time_delay 30;
	raise_taps 16;
	lower_taps 16;
	regulation 0.10;
	tap_pos_A 0;
	tap_pos_B 0;
	tap_pos_C 0;
}


object capacitor:1610 {
	name R2-12-47-2_cap_1;
	phases ABCN;
	pt_phase C;
	parent R2-12-47-2_node_6;
	phases_connected ABC;
	control VOLT;
	voltage_set_high 7300; 
	voltage_set_low 7100; 
	capacitor_A 0.4 MVAr;
	capacitor_B 0.4 MVAr;
	capacitor_C 0.4 MVAr;
	control_level INDIVIDUAL;
	time_delay 30.0;
	dwell_time 30.0;
	cap_nominal_voltage 7200;
	nominal_voltage 7200;
	// object recorder {
		// property "switchA,switchB,switchC,voltage_A.real,voltage_A.imag,voltage_B.real,voltage_B.imag,voltage_C.real,voltage_C.imag";
		// file R2-12.47-2_capacitor1.csv;
		// interval 60;
		// limit 1440;
	// };
}

object capacitor:1611 {
	name R2-12-47-2_cap_2;
	phases ABCN;
	pt_phase C;
	parent R2-12-47-2_node_90;
	phases_connected ABC;
	control VOLT;
	voltage_set_high 7300; 
	voltage_set_low 7100; 
	capacitor_A 0.3 MVAr;
	capacitor_B 0.3 MVAr;
	capacitor_C 0.3 MVAr;
	control_level INDIVIDUAL;
	time_delay 30.0;
	dwell_time 30.0;
	cap_nominal_voltage 7200;
	nominal_voltage 7200;
	// object recorder {
		// property "switchA,switchB,switchC,voltage_A.real,voltage_A.imag,voltage_B.real,voltage_B.imag,voltage_C.real,voltage_C.imag";
		// file R2-12.47-2_capacitor2.csv;
		// interval 60;
		// limit 1440;
	// };
}

object capacitor:1612 {
	name R2-12-47-2_cap_3;
	phases ABCN;
	pt_phase C;
	parent R2-12-47-2_node_7;
	phases_connected ABC;
	control VOLT;
	voltage_set_high 7300; 
	voltage_set_low 7100; 
	capacitor_A 0.4 MVAr;
	capacitor_B 0.4 MVAr;
	capacitor_C 0.4 MVAr;
	control_level INDIVIDUAL;
	time_delay 30.0;
	dwell_time 30.0;
	cap_nominal_voltage 7200;
	nominal_voltage 7200;
	// object recorder {
		// property "switchA,switchB,switchC,voltage_A.real,voltage_A.imag,voltage_B.real,voltage_B.imag,voltage_C.real,voltage_C.imag";
		// file R2-12.47-2_capacitor3.csv;
		// interval 60;
		// limit 1440;
	// };
}

object capacitor:1613 {
	name R2-12-47-2_cap_4;
	phases ABCN;
	pt_phase C;
	parent R2-12-47-2_node_59;
	phases_connected ABC;
	control VOLT;
	voltage_set_high 7300; 
	voltage_set_low 7100; 
	capacitor_A 0.4 MVAr;
	capacitor_B 0.4 MVAr;
	capacitor_C 0.4 MVAr;
	control_level INDIVIDUAL;
	time_delay 30.0;
	dwell_time 30.0;
	cap_nominal_voltage 7200;
	nominal_voltage 7200;
	object recorder {
		property "switchA,switchB,switchC,voltage_A.real,voltage_A.imag,voltage_B.real,voltage_B.imag,voltage_C.real,voltage_C.imag";
		file R2-12.47-2_capacitor4.csv;
		interval 60;
		limit 56;
	};
}


object fuse:1547 {
	name R2-12-47-2_fuse_1;
	phases AN;
	from R2-12-47-2_node_1;
	to R2-12-47-2_node_246;
	current_limit 100;
	status CLOSED;
}

object fuse:1548 {
	name R2-12-47-2_fuse_2;
	phases BN;
	from R2-12-47-2_node_8;
	to R2-12-47-2_node_100;
	current_limit 100;
	status CLOSED;
}

object fuse:1549 {
	name R2-12-47-2_fuse_3;
	phases CN;
	from R2-12-47-2_node_11;
	to R2-12-47-2_node_98;
	current_limit 100;
	status CLOSED;
}

object fuse:1550 {
	name R2-12-47-2_fuse_4;
	phases CN;
	from R2-12-47-2_node_12;
	to R2-12-47-2_node_99;
	current_limit 100;
	status CLOSED;
}

object fuse:1551 {
	name R2-12-47-2_fuse_5;
	phases BN;
	from R2-12-47-2_node_13;
	to R2-12-47-2_node_101;
	current_limit 50;
	status CLOSED;
}

object fuse:1552 {
	name R2-12-47-2_fuse_6;
	phases BCN;
	from R2-12-47-2_node_15;
	to R2-12-47-2_node_248;
	current_limit 125;
	status CLOSED;
}

object fuse:1553 {
	name R2-12-47-2_fuse_7;
	phases AN;
	from R2-12-47-2_node_16;
	to R2-12-47-2_node_113;
	current_limit 100;
	status CLOSED;
}

object fuse:1554 {
	name R2-12-47-2_fuse_8;
	phases ABCN;
	from R2-12-47-2_node_17;
	to R2-12-47-2_node_9;
	current_limit 100;
	status CLOSED;
}

object fuse:1555 {
	name R2-12-47-2_fuse_9;
	phases ABCN;
	from R2-12-47-2_node_19;
	to R2-12-47-2_node_18;
	current_limit 50;
	status CLOSED;
}

object fuse:1556 {
	name R2-12-47-2_fuse_10;
	phases AN;
	from R2-12-47-2_node_23;
	to R2-12-47-2_node_109;
	current_limit 50;
	status CLOSED;
}

object fuse:1557 {
	name R2-12-47-2_fuse_11;
	phases AN;
	from R2-12-47-2_node_24;
	to R2-12-47-2_node_21;
	current_limit 80;
	status CLOSED;
}

object fuse:1558 {
	name R2-12-47-2_fuse_12;
	phases CN;
	from R2-12-47-2_node_28;
	to R2-12-47-2_node_29;
	current_limit 100;
	status CLOSED;
}

object fuse:1559 {
	name R2-12-47-2_fuse_13;
	phases AN;
	from R2-12-47-2_node_32;
	to R2-12-47-2_node_154;
	current_limit 50;
	status CLOSED;
}

object fuse:1560 {
	name R2-12-47-2_fuse_14;
	phases ABN;
	from R2-12-47-2_node_33;
	to R2-12-47-2_node_30;
	current_limit 100;
	status CLOSED;
}

object fuse:1561 {
	name R2-12-47-2_fuse_15;
	phases ABCN;
	from R2-12-47-2_node_36;
	to R2-12-47-2_node_102;
	current_limit 100;
	status CLOSED;
}

object fuse:1562 {
	name R2-12-47-2_fuse_16;
	phases AN;
	from R2-12-47-2_node_37;
	to R2-12-47-2_node_132;
	current_limit 100;
	status CLOSED;
}

object fuse:1563 {
	name R2-12-47-2_fuse_17;
	phases AN;
	from R2-12-47-2_node_39;
	to R2-12-47-2_node_131;
	current_limit 100;
	status CLOSED;
}

object fuse:1564 {
	name R2-12-47-2_fuse_18;
	phases CN;
	from R2-12-47-2_node_40;
	to R2-12-47-2_node_229;
	current_limit 80;
	status CLOSED;
}

object fuse:1565 {
	name R2-12-47-2_fuse_19;
	phases ACN;
	from R2-12-47-2_node_42;
	to R2-12-47-2_node_67;
	current_limit 80;
	status CLOSED;
}

object fuse:1566 {
	name R2-12-47-2_fuse_20;
	phases ABCN;
	from R2-12-47-2_node_42;
	to R2-12-47-2_node_103;
	current_limit 80;
	status CLOSED;
}

object fuse:1567 {
	name R2-12-47-2_fuse_21;
	phases CN;
	from R2-12-47-2_node_44;
	to R2-12-47-2_node_50;
	current_limit 65;
	status CLOSED;
}

object fuse:1568 {
	name R2-12-47-2_fuse_22;
	phases CN;
	from R2-12-47-2_node_46;
	to R2-12-47-2_node_49;
	current_limit 80;
	status CLOSED;
}

object fuse:1569 {
	name R2-12-47-2_fuse_23;
	phases BN;
	from R2-12-47-2_node_47;
	to R2-12-47-2_node_207;
	current_limit 100;
	status CLOSED;
}

object fuse:1570 {
	name R2-12-47-2_fuse_24;
	phases BN;
	from R2-12-47-2_node_48;
	to R2-12-47-2_node_211;
	current_limit 65;
	status CLOSED;
}

object fuse:1571 {
	name R2-12-47-2_fuse_25;
	phases BN;
	from R2-12-47-2_node_54;
	to R2-12-47-2_node_231;
	current_limit 80;
	status CLOSED;
}

object fuse:1572 {
	name R2-12-47-2_fuse_26;
	phases BN;
	from R2-12-47-2_node_55;
	to R2-12-47-2_node_228;
	current_limit 80;
	status CLOSED;
}

object fuse:1573 {
	name R2-12-47-2_fuse_27;
	phases BN;
	from R2-12-47-2_node_56;
	to R2-12-47-2_node_55;
	current_limit 150;
	status CLOSED;
}

object fuse:1574 {
	name R2-12-47-2_fuse_28;
	phases ABCN;
	from R2-12-47-2_node_57;
	to R2-12-47-2_node_63;
	current_limit 150;
	status CLOSED;
}

object fuse:1575 {
	name R2-12-47-2_fuse_29;
	phases BN;
	from R2-12-47-2_node_62;
	to R2-12-47-2_node_226;
	current_limit 100;
	status CLOSED;
}

object fuse:1576 {
	name R2-12-47-2_fuse_30;
	phases CN;
	from R2-12-47-2_node_64;
	to R2-12-47-2_node_225;
	current_limit 80;
	status CLOSED;
}

object fuse:1577 {
	name R2-12-47-2_fuse_31;
	phases CN;
	from R2-12-47-2_node_65;
	to R2-12-47-2_node_66;
	current_limit 80;
	status CLOSED;
}

object fuse:1578 {
	name R2-12-47-2_fuse_32;
	phases AN;
	from R2-12-47-2_node_68;
	to R2-12-47-2_node_205;
	current_limit 80;
	status CLOSED;
}

object fuse:1579 {
	name R2-12-47-2_fuse_33;
	phases ABCN;
	from R2-12-47-2_node_69;
	to R2-12-47-2_node_183;
	current_limit 100;
	status CLOSED;
}

object fuse:1580 {
	name R2-12-47-2_fuse_34;
	phases CN;
	from R2-12-47-2_node_72;
	to R2-12-47-2_node_153;
	current_limit 100;
	status CLOSED;
}

object fuse:1581 {
	name R2-12-47-2_fuse_35;
	phases BN;
	from R2-12-47-2_node_72;
	to R2-12-47-2_node_155;
	current_limit 100;
	status CLOSED;
}

object fuse:1582 {
	name R2-12-47-2_fuse_36;
	phases AN;
	from R2-12-47-2_node_73;
	to R2-12-47-2_node_175;
	current_limit 100;
	status CLOSED;
}

object fuse:1583 {
	name R2-12-47-2_fuse_37;
	phases CN;
	from R2-12-47-2_node_74;
	to R2-12-47-2_node_177;
	current_limit 80;
	status CLOSED;
}

object fuse:1584 {
	name R2-12-47-2_fuse_38;
	phases BN;
	from R2-12-47-2_node_81;
	to R2-12-47-2_node_126;
	current_limit 65;
	status CLOSED;
}

object fuse:1585 {
	name R2-12-47-2_fuse_39;
	phases AN;
	from R2-12-47-2_node_87;
	to R2-12-47-2_node_201;
	current_limit 80;
	status CLOSED;
}

object fuse:1586 {
	name R2-12-47-2_fuse_40;
	phases CN;
	from R2-12-47-2_node_88;
	to R2-12-47-2_node_190;
	current_limit 80;
	status CLOSED;
}

object fuse:1587 {
	name R2-12-47-2_fuse_41;
	phases AN;
	from R2-12-47-2_node_88;
	to R2-12-47-2_node_195;
	current_limit 80;
	status CLOSED;
}

object fuse:1588 {
	name R2-12-47-2_fuse_42;
	phases BN;
	from R2-12-47-2_node_89;
	to R2-12-47-2_node_181;
	current_limit 80;
	status CLOSED;
}

object fuse:1589 {
	name R2-12-47-2_fuse_43;
	phases CN;
	from R2-12-47-2_node_90;
	to R2-12-47-2_node_166;
	current_limit 100;
	status CLOSED;
}

object fuse:1590 {
	name R2-12-47-2_fuse_44;
	phases CN;
	from R2-12-47-2_node_91;
	to R2-12-47-2_node_179;
	current_limit 100;
	status CLOSED;
}

object fuse:1591 {
	name R2-12-47-2_fuse_45;
	phases CN;
	from R2-12-47-2_node_91;
	to R2-12-47-2_node_185;
	current_limit 100;
	status CLOSED;
}

object fuse:1592 {
	name R2-12-47-2_fuse_46;
	phases BN;
	from R2-12-47-2_node_94;
	to R2-12-47-2_node_108;
	current_limit 50;
	status CLOSED;
}

object fuse:1593 {
	name R2-12-47-2_fuse_47;
	phases BN;
	from R2-12-47-2_node_244;
	to R2-12-47-2_node_97;
	current_limit 100;
	status CLOSED;
}

object fuse:1594 {
	name R2-12-47-2_fuse_48;
	phases BN;
	from R2-12-47-2_node_111;
	to R2-12-47-2_node_121;
	current_limit 100;
	status CLOSED;
}

object fuse:1595 {
	name R2-12-47-2_fuse_49;
	phases BN;
	from R2-12-47-2_node_112;
	to R2-12-47-2_node_35;
	current_limit 100;
	status CLOSED;
}

object fuse:1596 {
	name R2-12-47-2_fuse_50;
	phases ABCN;
	from R2-12-47-2_node_112;
	to R2-12-47-2_node_36;
	current_limit 150;
	status CLOSED;
}

object fuse:1597 {
	name R2-12-47-2_fuse_51;
	phases AN;
	from R2-12-47-2_node_146;
	to R2-12-47-2_node_174;
	current_limit 100;
	status CLOSED;
}


object line_configuration:24 {
	conductor_A overhead_line_conductor:2;
	conductor_N overhead_line_conductor:2;
	spacing line_spacing:17;
}

object line_configuration:25 {
	conductor_A overhead_line_conductor:3;
	conductor_B overhead_line_conductor:3;
	conductor_C overhead_line_conductor:3;
	conductor_N overhead_line_conductor:3;
	spacing line_spacing:18;
}

object line_configuration:26 {
	conductor_A overhead_line_conductor:4;
	conductor_N overhead_line_conductor:4;
	spacing line_spacing:17;
}

object line_configuration:27 {
	conductor_A overhead_line_conductor:5;
	conductor_N overhead_line_conductor:5;
	spacing line_spacing:17;
}

object line_configuration:28 {
	conductor_C overhead_line_conductor:2;
	conductor_N overhead_line_conductor:2;
	spacing line_spacing:19;
}

object line_configuration:29 {
	conductor_C overhead_line_conductor:2;
	conductor_N overhead_line_conductor:2;
	spacing line_spacing:19;
}

object line_configuration:30 {
	conductor_A overhead_line_conductor:6;
	conductor_B overhead_line_conductor:6;
	conductor_C overhead_line_conductor:6;
	conductor_N overhead_line_conductor:6;
	spacing line_spacing:18;
}

object line_configuration:31 {
	conductor_B underground_line_conductor:7;
	conductor_N underground_line_conductor:7;
	spacing line_spacing:20;
}

object line_configuration:32 {
	conductor_A overhead_line_conductor:8;
	conductor_B overhead_line_conductor:8;
	conductor_C overhead_line_conductor:8;
	conductor_N overhead_line_conductor:8;
	spacing line_spacing:18;
}

object line_configuration:33 {
	conductor_A underground_line_conductor:9;
	conductor_B underground_line_conductor:9;
	conductor_C underground_line_conductor:9;
	conductor_N underground_line_conductor:9;
	spacing line_spacing:18;
}

object line_configuration:34 {
	conductor_C underground_line_conductor:7;
	conductor_N underground_line_conductor:7;
	spacing line_spacing:19;
}

object line_configuration:35 {
	conductor_B overhead_line_conductor:2;
	conductor_N overhead_line_conductor:2;
	spacing line_spacing:20;
}

object line_configuration:36 {
	conductor_C overhead_line_conductor:4;
	conductor_N overhead_line_conductor:4;
	spacing line_spacing:19;
}

object line_configuration:37 {
	conductor_B overhead_line_conductor:2;
	conductor_C overhead_line_conductor:2;
	conductor_N overhead_line_conductor:2;
	spacing line_spacing:21;
}

object line_configuration:38 {
	conductor_A underground_line_conductor:7;
	conductor_B underground_line_conductor:7;
	conductor_C underground_line_conductor:7;
	conductor_N underground_line_conductor:7;
	spacing line_spacing:18;
}

object line_configuration:39 {
	conductor_A overhead_line_conductor:2;
	conductor_B overhead_line_conductor:2;
	conductor_C overhead_line_conductor:2;
	conductor_N overhead_line_conductor:2;
	spacing line_spacing:18;
}

object line_configuration:40 {
	conductor_A overhead_line_conductor:10;
	conductor_B overhead_line_conductor:10;
	conductor_C overhead_line_conductor:10;
	conductor_N overhead_line_conductor:10;
	spacing line_spacing:18;
}

object line_configuration:41 {
	conductor_A overhead_line_conductor:11;
	conductor_N overhead_line_conductor:11;
	spacing line_spacing:17;
}

object line_configuration:42 {
	conductor_A overhead_line_conductor:11;
	conductor_N overhead_line_conductor:11;
	spacing line_spacing:17;
}

object line_configuration:43 {
	conductor_B overhead_line_conductor:2;
	conductor_N overhead_line_conductor:2;
	spacing line_spacing:20;
}

object line_configuration:44 {
	conductor_A overhead_line_conductor:2;
	conductor_B overhead_line_conductor:2;
	conductor_N overhead_line_conductor:2;
	spacing line_spacing:22;
}

object line_configuration:45 {
	conductor_A overhead_line_conductor:12;
	conductor_B overhead_line_conductor:12;
	conductor_C overhead_line_conductor:12;
	conductor_N overhead_line_conductor:12;
	spacing line_spacing:18;
}

object line_configuration:46 {
	conductor_A overhead_line_conductor:12;
	conductor_B overhead_line_conductor:12;
	conductor_C overhead_line_conductor:12;
	conductor_N overhead_line_conductor:12;
	spacing line_spacing:18;
}

object line_configuration:47 {
	conductor_A overhead_line_conductor:11;
	conductor_C overhead_line_conductor:11;
	conductor_N overhead_line_conductor:11;
	spacing line_spacing:23;
}

object line_configuration:48 {
	conductor_C overhead_line_conductor:4;
	conductor_N overhead_line_conductor:4;
	spacing line_spacing:19;
}

object line_configuration:49 {
	conductor_C overhead_line_conductor:4;
	conductor_N overhead_line_conductor:4;
	spacing line_spacing:19;
}

object line_configuration:50 {
	conductor_B overhead_line_conductor:5;
	conductor_N overhead_line_conductor:5;
	spacing line_spacing:20;
}

object line_configuration:51 {
	conductor_B overhead_line_conductor:10;
	conductor_N overhead_line_conductor:10;
	spacing line_spacing:20;
}

object line_configuration:52 {
	conductor_A overhead_line_conductor:2;
	conductor_B overhead_line_conductor:2;
	conductor_C overhead_line_conductor:2;
	conductor_N overhead_line_conductor:2;
	spacing line_spacing:18;
}

object line_configuration:53 {
	conductor_A overhead_line_conductor:6;
	conductor_B overhead_line_conductor:6;
	conductor_C overhead_line_conductor:6;
	conductor_N overhead_line_conductor:6;
	spacing line_spacing:18;
}

object line_configuration:54 {
	conductor_A overhead_line_conductor:11;
	conductor_N overhead_line_conductor:11;
	spacing line_spacing:17;
}

object line_configuration:55 {
	conductor_A overhead_line_conductor:11;
	conductor_N overhead_line_conductor:11;
	spacing line_spacing:17;
}

object line_configuration:56 {
	conductor_B overhead_line_conductor:11;
	conductor_N overhead_line_conductor:11;
	spacing line_spacing:20;
}

object line_configuration:57 {
	conductor_A overhead_line_conductor:2;
	conductor_C overhead_line_conductor:2;
	conductor_N overhead_line_conductor:2;
	spacing line_spacing:23;
}

object line_configuration:58 {
	conductor_A overhead_line_conductor:5;
	conductor_B overhead_line_conductor:5;
	conductor_C overhead_line_conductor:5;
	conductor_N overhead_line_conductor:5;
	spacing line_spacing:18;
}

object line_configuration:59 {
	conductor_B overhead_line_conductor:2;
	conductor_N overhead_line_conductor:2;
	spacing line_spacing:20;
}

object line_configuration:60 {
	conductor_C underground_line_conductor:13;
	conductor_N underground_line_conductor:13;
	spacing line_spacing:19;
}

object line_configuration:61 {
	conductor_B overhead_line_conductor:4;
	conductor_N overhead_line_conductor:4;
	spacing line_spacing:20;
}

object line_configuration:62 {
	conductor_A overhead_line_conductor:2;
	conductor_N overhead_line_conductor:2;
	spacing line_spacing:17;
}

object line_configuration:63 {
	conductor_C overhead_line_conductor:5;
	conductor_N overhead_line_conductor:5;
	spacing line_spacing:19;
}

object line_configuration:64 {
	conductor_A overhead_line_conductor:4;
	conductor_N overhead_line_conductor:4;
	spacing line_spacing:17;
}


object line_spacing:17 {
	distance_AN 0.0 in;
}

object line_spacing:18 {
	distance_AB 0.0 in;
	distance_BC 0.0 in;
	distance_AC 0.0 in;
	distance_AN 0.0 in;
	distance_BN 0.0 in;
	distance_CN 0.0 in;
}

object line_spacing:19 {
	distance_CN 0.0 in;
}

object line_spacing:20 {
	distance_BN 0.0 in;
}

object line_spacing:21 {
	distance_BC 0.0 in;
	distance_BN 0.0 in;
	distance_CN 0.0 in;
}

object line_spacing:22 {
	distance_AB 0.0 in;
	distance_AN 0.0 in;
	distance_BN 0.0 in;
}

object line_spacing:23 {
	distance_AC 0.0 in;
	distance_AN 0.0 in;
	distance_CN 0.0 in;
}


object load:317 {
	name R2-12-47-2_load_1;
	parent R2-12-47-2_meter_1;
	phases ABCN;
	voltage_A 7200+0.0j;
	voltage_B -3600-6235j;
	voltage_C -3600+6235j;
	constant_power_A 99926.9135+81191.9711j;
	constant_power_B 90146.6773+69095.8558j;
	constant_power_C 88901.8571+63581.1158j;
	nominal_voltage 7200;
	load_class C;
}

object load:318 {
	name R2-12-47-2_load_2;
	parent R2-12-47-2_meter_2;
	phases ABCN;
	voltage_A 7200+0.0j;
	voltage_B -3600-6235j;
	voltage_C -3600+6235j;
	constant_power_A 59954.949+48714.2084j;
	constant_power_B 54086.9246+41456.6844j;
	constant_power_C 53340.0474+38147.9066j;
	nominal_voltage 7200;
	load_class C;
}

object load:319 {
	name R2-12-47-2_load_3;
	parent R2-12-47-2_meter_3;
	phases ABCN;
	voltage_A 7200+0.0j;
	voltage_B -3600-6235j;
	voltage_C -3600+6235j;
	constant_power_A 8993.2424+7307.1313j;
	constant_power_B 13521.7312+10364.1711j;
	constant_power_C 8001.0071+5722.186j;
	nominal_voltage 7200;
	load_class C;
	// object recorder {
		// property voltage_A,voltage_B,voltage_C;
		// interval 60;
		// limit 1440;
		// file "319.csv";
	// };
	object complex_assert{
		target voltage_A;
		value +261.941-9.88468j;
		within 2;
	};
	object complex_assert{
		target voltage_B;
		value -139.863-222.82j;
		within 2;
	};
	object complex_assert{
		target voltage_C;
		value -124.322+242.388j;
		within 12;
	};
}

object load:320 {
	name R2-12-47-2_load_4;
	parent R2-12-47-2_meter_4;
	phases ABCN;
	voltage_A 7200+0.0j;
	voltage_B -3600-6235j;
	voltage_C -3600+6235j;
	constant_power_A 29977.4745+24357.1042j;
	constant_power_B 27043.4623+20728.3422j;
	constant_power_C 26670.0237+19073.9533j;
	nominal_voltage 7200;
	load_class C;
}

object load:321 {
	name R2-12-47-2_load_5;
	parent R2-12-47-2_meter_5;
	phases ABCN;
	voltage_A 7200+0.0j;
	voltage_B -3600-6235j;
	voltage_C -3600+6235j;
	constant_power_A 29977.4745+24357.1042j;
	constant_power_B 27043.4623+20728.3422j;
	constant_power_C 26670.0237+19073.9533j;
	nominal_voltage 7200;
	load_class C;
}

object load:322 {
	name R2-12-47-2_load_6;
	parent R2-12-47-2_meter_6;
	phases CN;
	voltage_C -3600+6235j;
	constant_power_C 26670.0237+19073.9533j;
	nominal_voltage 7200;
	load_class C;
}

object load:323 {
	name R2-12-47-2_load_7;
	parent R2-12-47-2_meter_7;
	phases ABCN;
	voltage_A 7200+0.0j;
	voltage_B -3600-6235j;
	voltage_C -3600+6235j;
	constant_power_A 14988.7373+12178.5521j;
	constant_power_B 27043.4623+20728.3422j;
	constant_power_C 13335.0119+9536.9766j;
	nominal_voltage 7200;
	load_class C;
	// object recorder {
		// property voltage_A,voltage_B,voltage_C;
		// interval 60;
		// limit 1440;
		// file "323.csv";
	// };
	object complex_assert{
		target voltage_A;
		value +262.602-9.37667j;
		within 2;
	};
	object complex_assert{
		target voltage_B;
		value -139.707-223.777j;
		within 2;
	};
	object complex_assert{
		target voltage_C;
		value -124.963+242.616j;
		within 12;
	};
}

object load:324 {
	name R2-12-47-2_load_8;
	parent R2-12-47-2_meter_8;
	phases ABCN;
	voltage_A 7200+0.0j;
	voltage_B -3600-6235j;
	voltage_C -3600+6235j;
	constant_power_A 80939.1812+65764.1813j;
	constant_power_B 73017.3483+55966.5239j;
	constant_power_C 72009.064+51499.6738j;
	nominal_voltage 7200;
	load_class C;
}


object meter:901 {
	name R2-12-47-2_meter_1;
	phases ABCN;
	voltage_A 7200+0.0j;
	voltage_B -3600-6235j;
	voltage_C -3600+6235j;
	nominal_voltage 7200;
	// object recorder {
		// property voltage_A,voltage_B,voltage_C;
		// interval 60;
		// limit 1440;
		// file "901.csv";
	// };
	object complex_assert{
		target voltage_A;
		value +267.224-5.00708j;
		within 2;
	};
	object complex_assert{
		target voltage_B;
		value -138.435-228.898j;
		within 2;
	};
	object complex_assert{
		target voltage_C;
		value -127.445+233.564j;
		within 9;
	};
}

object meter:902 {
	name R2-12-47-2_meter_2;
	phases ABCN;
	voltage_A 7200+0.0j;
	voltage_B -3600-6235j;
	voltage_C -3600+6235j;
	nominal_voltage 7200;
}

object meter:903 {
	name R2-12-47-2_meter_3;
	phases ABCN;
	voltage_A 7200+0.0j;
	voltage_B -3600-6235j;
	voltage_C -3600+6235j;
	nominal_voltage 7200;
}

object meter:904 {
	name R2-12-47-2_meter_4;
	phases ABCN;
	voltage_A 7200+0.0j;
	voltage_B -3600-6235j;
	voltage_C -3600+6235j;
	nominal_voltage 7200;
}

object meter:905 {
	name R2-12-47-2_meter_5;
	phases ABCN;
	voltage_A 7200+0.0j;
	voltage_B -3600-6235j;
	voltage_C -3600+6235j;
	nominal_voltage 7200;
}

object meter:906 {
	name R2-12-47-2_meter_6;
	phases CN;
	voltage_C -3600+6235j;
	nominal_voltage 7200;
}

object meter:907 {
	name R2-12-47-2_meter_7;
	phases ABCN;
	voltage_A 7200+0.0j;
	voltage_B -3600-6235j;
	voltage_C -3600+6235j;
	nominal_voltage 7200;
	// object recorder {
		// property voltage_A,voltage_B,voltage_C;
		// interval 60;
		// limit 1440;
		// file "907.csv";
	// };
	object complex_assert{
		target voltage_A;
		value +262.602-9.37667j;
		within 2;
	};
	object complex_assert{
		target voltage_B;
		value -139.707-223.777j;
		within 2;
	};
	object complex_assert{
		target voltage_C;
		value -124.963+242.616j;
		within 14;
	};
}

object meter:908 {
	name R2-12-47-2_meter_8;
	phases ABCN;
	voltage_A 7200+0.0j;
	voltage_B -3600-6235j;
	voltage_C -3600+6235j;
	nominal_voltage 7200;
}

// Meter at feeder
object meter:1614 {
	name R2-12-47-2_meter_9;
	phases ABCN;
	nominal_voltage 7200; 
	voltage_A 7200+0.0j;
	voltage_B -3600-6235j;
	voltage_C -3600+6235j;
}


object node:65 {
	name R2-12-47-2_node_1;
	phases ABCN;
	voltage_A 7200+0.0j;
	voltage_B -3600-6235j;
	voltage_C -3600+6235j;
	nominal_voltage 7200;
}

object node:66 {
	name R2-12-47-2_node_2;
	phases ABCN;
	voltage_A 7200+0.0j;
	voltage_B -3600-6235j;
	voltage_C -3600+6235j;
	nominal_voltage 7200;
}

object node:67 {
	name R2-12-47-2_node_3;
	phases AN;
	voltage_A 7200+0.0j;
	nominal_voltage 7200;
}

object node:68 {
	name R2-12-47-2_node_4;
	phases AN;
	voltage_A 7200+0.0j;
	nominal_voltage 7200;
}

object node:69 {
	name R2-12-47-2_node_5;
	phases CN;
	voltage_C -3600+6235j;
	nominal_voltage 7200;
	// object recorder {
		// property voltage_A,voltage_B,voltage_C;
		// interval 60;
		// limit 1440;
		// file "69.csv";
	// };
	object complex_assert{
		target voltage_A;
		value +0+0j;
		within 2;
	};
	object complex_assert{
		target voltage_B;
		value +0+0j;
		within 2;
	};
	object complex_assert{
		target voltage_C;
		value +6983.22+118.239d;
		within 160; // @IMPORTANT there is an approx difference
					// of 160 between the first and second recorder 
					// values of this variable
	};
}

object node:70 {
	name R2-12-47-2_node_6;
	phases ABCN;
	voltage_A 7200+0.0j;
	voltage_B -3600-6235j;
	voltage_C -3600+6235j;
	nominal_voltage 7200;
}

object node:71 {
	name R2-12-47-2_node_7;
	phases ABCN;
	voltage_A 7200+0.0j;
	voltage_B -3600-6235j;
	voltage_C -3600+6235j;
	nominal_voltage 7200;
}

object node:72 {
	name R2-12-47-2_node_8;
	phases BN;
	voltage_B -3600-6235j;
	nominal_voltage 7200;
}

object node:73 {
	name R2-12-47-2_node_9;
	phases ABCN;
	voltage_A 7200+0.0j;
	voltage_B -3600-6235j;
	voltage_C -3600+6235j;
	nominal_voltage 7200;
}

object node:74 {
	name R2-12-47-2_node_10;
	phases ABCN;
	voltage_A 7200+0.0j;
	voltage_B -3600-6235j;
	voltage_C -3600+6235j;
	nominal_voltage 7200;
}

object node:75 {
	name R2-12-47-2_node_11;
	phases ABCN;
	voltage_A 7200+0.0j;
	voltage_B -3600-6235j;
	voltage_C -3600+6235j;
	nominal_voltage 7200;
}

object node:76 {
	name R2-12-47-2_node_12;
	phases CN;
	voltage_C -3600+6235j;
	nominal_voltage 7200;
}

object node:77 {
	name R2-12-47-2_node_13;
	phases BN;
	voltage_B -3600-6235j;
	nominal_voltage 7200;
}

object node:78 {
	name R2-12-47-2_node_14;
	phases BCN;
	voltage_B -3600-6235j;
	voltage_C -3600+6235j;
	nominal_voltage 7200;
}

object node:79 {
	name R2-12-47-2_node_15;
	phases ABCN;
	voltage_A 7200+0.0j;
	voltage_B -3600-6235j;
	voltage_C -3600+6235j;
	nominal_voltage 7200;
}

object node:80 {
	name R2-12-47-2_node_16;
	phases ABCN;
	voltage_A 7200+0.0j;
	voltage_B -3600-6235j;
	voltage_C -3600+6235j;
	nominal_voltage 7200;
}

object node:81 {
	name R2-12-47-2_node_17;
	phases ABCN;
	voltage_A 7200+0.0j;
	voltage_B -3600-6235j;
	voltage_C -3600+6235j;
	nominal_voltage 7200;
}

object node:82 {
	name R2-12-47-2_node_18;
	phases ABCN;
	voltage_A 7200+0.0j;
	voltage_B -3600-6235j;
	voltage_C -3600+6235j;
	nominal_voltage 7200;
}

object node:83 {
	name R2-12-47-2_node_19;
	phases ABCN;
	voltage_A 7200+0.0j;
	voltage_B -3600-6235j;
	voltage_C -3600+6235j;
	nominal_voltage 7200;
}

object node:84 {
	name R2-12-47-2_node_20;
	phases AN;
	voltage_A 7200+0.0j;
	nominal_voltage 7200;
}

object node:85 {
	name R2-12-47-2_node_21;
	phases AN;
	voltage_A 7200+0.0j;
	nominal_voltage 7200;
}

object node:86 {
	name R2-12-47-2_node_22;
	phases BN;
	voltage_B -3600-6235j;
	nominal_voltage 7200;
}

object node:87 {
	name R2-12-47-2_node_23;
	phases ABCN;
	voltage_A 7200+0.0j;
	voltage_B -3600-6235j;
	voltage_C -3600+6235j;
	nominal_voltage 7200;
}

object node:88 {
	name R2-12-47-2_node_24;
	phases ABCN;
	voltage_A 7200+0.0j;
	voltage_B -3600-6235j;
	voltage_C -3600+6235j;
	nominal_voltage 7200;
}

object node:89 {
	name R2-12-47-2_node_25;
	phases ABCN;
	voltage_A 7200+0.0j;
	voltage_B -3600-6235j;
	voltage_C -3600+6235j;
	nominal_voltage 7200;
}

object node:90 {
	name R2-12-47-2_node_26;
	phases ABCN;
	voltage_A 7200+0.0j;
	voltage_B -3600-6235j;
	voltage_C -3600+6235j;
	nominal_voltage 7200;
}

object node:91 {
	name R2-12-47-2_node_27;
	phases ABCN;
	voltage_A 7200+0.0j;
	voltage_B -3600-6235j;
	voltage_C -3600+6235j;
	nominal_voltage 7200;
}

object node:92 {
	name R2-12-47-2_node_28;
	phases ABCN;
	voltage_A 7200+0.0j;
	voltage_B -3600-6235j;
	voltage_C -3600+6235j;
	nominal_voltage 7200;
}

object node:93 {
	name R2-12-47-2_node_29;
	phases CN;
	voltage_C -3600+6235j;
	nominal_voltage 7200;
}

object node:94 {
	name R2-12-47-2_node_30;
	phases ABN;
	voltage_A 7200+0.0j;
	voltage_B -3600-6235j;
	nominal_voltage 7200;
}

object node:95 {
	name R2-12-47-2_node_31;
	phases BN;
	voltage_B -3600-6235j;
	nominal_voltage 7200;
}

object node:96 {
	name R2-12-47-2_node_32;
	phases AN;
	voltage_A 7200+0.0j;
	nominal_voltage 7200;
}

object node:97 {
	name R2-12-47-2_node_33;
	phases ABN;
	voltage_A 7200+0.0j;
	voltage_B -3600-6235j;
	nominal_voltage 7200;
}

object node:98 {
	name R2-12-47-2_node_34;
	phases ABCN;
	voltage_A 7200+0.0j;
	voltage_B -3600-6235j;
	voltage_C -3600+6235j;
	nominal_voltage 7200;
}

object node:99 {
	name R2-12-47-2_node_35;
	phases BN;
	voltage_B -3600-6235j;
	nominal_voltage 7200;
}

object node:100 {
	name R2-12-47-2_node_36;
	phases ABCN;
	voltage_A 7200+0.0j;
	voltage_B -3600-6235j;
	voltage_C -3600+6235j;
	nominal_voltage 7200;
}

object node:101 {
	name R2-12-47-2_node_37;
	phases ABCN;
	voltage_A 7200+0.0j;
	voltage_B -3600-6235j;
	voltage_C -3600+6235j;
	nominal_voltage 7200;
}

object node:102 {
	name R2-12-47-2_node_38;
	phases ABCN;
	voltage_A 7200+0.0j;
	voltage_B -3600-6235j;
	voltage_C -3600+6235j;
	nominal_voltage 7200;
}

object node:103 {
	name R2-12-47-2_node_39;
	phases ABCN;
	voltage_A 7200+0.0j;
	voltage_B -3600-6235j;
	voltage_C -3600+6235j;
	nominal_voltage 7200;
}

object node:104 {
	name R2-12-47-2_node_40;
	phases ABCN;
	voltage_A 7200+0.0j;
	voltage_B -3600-6235j;
	voltage_C -3600+6235j;
	nominal_voltage 7200;
}
