// $Id: R3-12.47-2.glm 
// 12.47 kV feeder
//*********************************************
// validates voltages with NR at selected load, node, meter, and triplex_node/meter
// objects
//
// also validates power_in,power_out and power losses at selected
// underground lines
// written by alek332
clock{
	timezone EST+8EDT;
	timestamp '2000-01-01 0:00:00';
	stoptime '2000-01-01 1:00:00';
} 

#set profiler=1 
//********************************************* 
// modules 
module assert;
module tape; 
module powerflow{ 
     solver_method NR; 
      default_maximum_voltage_error 1e-6;
}; 

//********************************************* 
object regulator:785 { 
     name R3-12-47-2_reg_1; 
     from R3-12-47-2_node_267; 
     to R3-12-47-2_meter_63; 
     phases ABCN; 
     configuration regulator_configuration:786; 
     object recorder { 
          property tap_A,tap_B,tap_C,power_in_A.real,power_in_A.imag,power_in_B.real,power_in_B.imag,power_in_C.real,power_in_C.imag,power_in.real,power_in.imag; 
          limit 1440; 
          interval 60; 
          file "R3-12.27-2_reg_output.csv"; 
     }; 
} 

object regulator_configuration:786 { 
     name feeder_reg_cfg; 
     Control OUTPUT_VOLTAGE; 
     band_center 7500.0; 
     band_width 120; 
     connect_type WYE_WYE; 
     time_delay 30; 
     raise_taps 16; 
     lower_taps 16; 
     regulation 0.10; 
     tap_pos_A 0; 
     tap_pos_B 0; 
     tap_pos_C 0; 
} 

object fuse:724 { 
     name R3-12-47-2_fuse_1; 
     phases ABCN; 
     from R3-12-47-2_node_105; 
     to R3-12-47-2_node_88; 
     current_limit 100; 
     status CLOSED; 
} 

object fuse:725 { 
     name R3-12-47-2_fuse_2; 
     phases ABCN; 
     from R3-12-47-2_node_88; 
     to R3-12-47-2_node_87; 
     current_limit 200; 
     status CLOSED; 
} 

object fuse:726 { 
     name R3-12-47-2_fuse_3; 
     phases BN; 
     from R3-12-47-2_node_196; 
     to R3-12-47-2_node_90; 
     current_limit 40; 
     status CLOSED; 
} 

object fuse:727 { 
     name R3-12-47-2_fuse_4; 
     phases ABCN; 
     from R3-12-47-2_node_201; 
     to R3-12-47-2_node_81; 
     current_limit 25; 
     status CLOSED; 
} 

object fuse:728 { 
     name R3-12-47-2_fuse_5; 
     phases ABCN; 
     from R3-12-47-2_node_202; 
     to R3-12-47-2_node_82; 
     current_limit 25; 
     status CLOSED; 
} 

object fuse:729 { 
     name R3-12-47-2_fuse_6; 
     phases ABCN; 
     from R3-12-47-2_node_227; 
     to R3-12-47-2_node_84; 
     current_limit 65; 
     status CLOSED; 
} 

object fuse:730 { 
     name R3-12-47-2_fuse_7; 
     phases BN; 
     from R3-12-47-2_node_217; 
     to R3-12-47-2_node_95; 
     current_limit 25; 
     status CLOSED; 
} 

object fuse:731 { 
     name R3-12-47-2_fuse_8; 
     phases ABCN; 
     from R3-12-47-2_node_198; 
     to R3-12-47-2_node_91; 
     current_limit 40; 
     status CLOSED; 
} 

object fuse:732 { 
     name R3-12-47-2_fuse_9; 
     phases ABCN; 
     from R3-12-47-2_node_198; 
     to R3-12-47-2_node_83; 
     current_limit 80; 
     status CLOSED; 
} 

object fuse:733 { 
     name R3-12-47-2_fuse_10; 
     phases ABCN; 
     from R3-12-47-2_node_209; 
     to R3-12-47-2_node_85; 
     current_limit 65; 
     status CLOSED; 
} 

object fuse:734 { 
     name R3-12-47-2_fuse_11; 
     phases ABCN; 
     from R3-12-47-2_node_211; 
     to R3-12-47-2_node_93; 
     current_limit 100; 
     status CLOSED; 
} 

object fuse:735 { 
     name R3-12-47-2_fuse_12; 
     phases ABCN; 
     from R3-12-47-2_node_184; 
     to R3-12-47-2_node_89; 
     current_limit 65; 
     status CLOSED; 
} 

object fuse:736 { 
     name R3-12-47-2_fuse_13; 
     phases ABCN; 
     from R3-12-47-2_node_210; 
     to R3-12-47-2_node_92; 
     current_limit 65; 
     status CLOSED; 
} 

object fuse:737 { 
     name R3-12-47-2_fuse_14; 
     phases ABCN; 
     from R3-12-47-2_node_213; 
     to R3-12-47-2_node_94; 
     current_limit 65; 
     status CLOSED; 
} 

object fuse:738 { 
     name R3-12-47-2_fuse_15; 
     phases ABCN; 
     from R3-12-47-2_node_215; 
     to R3-12-47-2_node_86; 
     current_limit 65; 
     status CLOSED; 
} 

object fuse:739 { 
     name R3-12-47-2_fuse_16; 
     phases BN; 
     from R3-12-47-2_node_115; 
     to R3-12-47-2_node_80; 
     current_limit 118; 
     status CLOSED; 
} 

object fuse:740 { 
     name R3-12-47-2_fuse_17; 
     phases ABCN; 
     from R3-12-47-2_node_128; 
     to R3-12-47-2_node_73; 
     current_limit 300; 
     status CLOSED; 
} 

object fuse:741 { 
     name R3-12-47-2_fuse_18; 
     phases ABCN; 
     from R3-12-47-2_node_3; 
     to R3-12-47-2_node_78; 
     current_limit 90; 
     status CLOSED; 
} 

object fuse:742 { 
     name R3-12-47-2_fuse_19; 
     phases ABCN; 
     from R3-12-47-2_node_2; 
     to R3-12-47-2_node_79; 
     current_limit 18; 
     status CLOSED; 
} 

object fuse:743 { 
     name R3-12-47-2_fuse_20; 
     phases ABCN; 
     from R3-12-47-2_node_6; 
     to R3-12-47-2_node_72; 
     current_limit 300; 
     status CLOSED; 
} 

object fuse:744 { 
     name R3-12-47-2_fuse_21; 
     phases ABCN; 
     from R3-12-47-2_node_8; 
     to R3-12-47-2_node_76; 
     current_limit 300; 
     status CLOSED; 
} 

object line_configuration:21 { 
     conductor_B overhead_line_conductor:2; 
     conductor_N overhead_line_conductor:2; 
     spacing line_spacing:16; 
} 

object line_configuration:22 { 
     conductor_A overhead_line_conductor:3; 
     conductor_B overhead_line_conductor:3; 
     conductor_C overhead_line_conductor:3; 
     conductor_N overhead_line_conductor:3; 
     spacing line_spacing:17; 
} 

object line_configuration:23 { 
     conductor_A overhead_line_conductor:2; 
     conductor_B overhead_line_conductor:2; 
     conductor_C overhead_line_conductor:2; 
     conductor_N overhead_line_conductor:2; 
     spacing line_spacing:17; 
} 

object line_configuration:24 { 
     conductor_A overhead_line_conductor:2; 
     conductor_N overhead_line_conductor:2; 
     spacing line_spacing:18; 
} 

object line_configuration:25 { 
     conductor_B overhead_line_conductor:4; 
     conductor_N overhead_line_conductor:4; 
     spacing line_spacing:16; 
} 

object line_configuration:26 { 
     conductor_B overhead_line_conductor:5; 
     conductor_N overhead_line_conductor:5; 
     spacing line_spacing:16; 
} 

object line_configuration:27 { 
     conductor_A overhead_line_conductor:3; 
     conductor_N overhead_line_conductor:3; 
     spacing line_spacing:18; 
} 

object line_configuration:28 { 
     conductor_A overhead_line_conductor:3; 
     conductor_B overhead_line_conductor:3; 
     conductor_N overhead_line_conductor:3; 
     spacing line_spacing:19; 
} 

object line_configuration:29 { 
     conductor_A overhead_line_conductor:3; 
     conductor_N overhead_line_conductor:3; 
     spacing line_spacing:18; 
} 

object line_configuration:30 { 
     conductor_A overhead_line_conductor:5; 
     conductor_B overhead_line_conductor:5; 
     conductor_C overhead_line_conductor:5; 
     conductor_N overhead_line_conductor:5; 
     spacing line_spacing:17; 
} 

object line_configuration:31 { 
     conductor_B overhead_line_conductor:6; 
     conductor_N overhead_line_conductor:6; 
     spacing line_spacing:16; 
} 

object line_configuration:32 { 
     conductor_A overhead_line_conductor:3; 
     conductor_B overhead_line_conductor:3; 
     conductor_C overhead_line_conductor:3; 
     conductor_N overhead_line_conductor:3; 
     spacing line_spacing:17; 
} 

object line_configuration:33 { 
     conductor_C overhead_line_conductor:7; 
     conductor_N overhead_line_conductor:7; 
     spacing line_spacing:20; 
} 

object line_configuration:34 { 
     conductor_A overhead_line_conductor:6; 
     conductor_B overhead_line_conductor:6; 
     conductor_C overhead_line_conductor:6; 
     conductor_N overhead_line_conductor:6; 
     spacing line_spacing:17; 
} 

object line_configuration:35 { 
     conductor_A overhead_line_conductor:8; 
     conductor_B overhead_line_conductor:8; 
     conductor_C overhead_line_conductor:8; 
     conductor_N overhead_line_conductor:8; 
     spacing line_spacing:17; 
} 

object line_configuration:36 { 
     conductor_A overhead_line_conductor:9; 
     conductor_B overhead_line_conductor:9; 
     conductor_C overhead_line_conductor:9; 
     conductor_N overhead_line_conductor:9; 
     spacing line_spacing:17; 
} 

object line_configuration:37 { 
     conductor_A overhead_line_conductor:3; 
     conductor_B overhead_line_conductor:3; 
     conductor_C overhead_line_conductor:3; 
     conductor_N overhead_line_conductor:3; 
     spacing line_spacing:17; 
} 

object line_configuration:38 { 
     conductor_C underground_line_conductor:10; 
     conductor_N underground_line_conductor:10; 
     spacing line_spacing:20; 
} 

object line_configuration:39 { 
     conductor_A underground_line_conductor:10; 
     conductor_B underground_line_conductor:10; 
     conductor_C underground_line_conductor:10; 
     conductor_N underground_line_conductor:10; 
     spacing line_spacing:17; 
} 

object line_configuration:40 { 
     conductor_A underground_line_conductor:10; 
     conductor_N underground_line_conductor:10; 
     spacing line_spacing:18; 
} 

object line_configuration:41 { 
     conductor_A underground_line_conductor:11; 
     conductor_B underground_line_conductor:11; 
     conductor_C underground_line_conductor:11; 
     conductor_N underground_line_conductor:11; 
     spacing line_spacing:17; 
} 

object line_configuration:42 { 
     conductor_A underground_line_conductor:12; 
     conductor_B underground_line_conductor:12; 
     conductor_C underground_line_conductor:12; 
     conductor_N underground_line_conductor:12; 
     spacing line_spacing:17; 
} 

object line_configuration:43 { 
     conductor_A underground_line_conductor:13; 
     conductor_B underground_line_conductor:13; 
     conductor_C underground_line_conductor:13; 
     conductor_N underground_line_conductor:13; 
     spacing line_spacing:17; 
} 

object line_configuration:44 { 
     conductor_B underground_line_conductor:10; 
     conductor_N underground_line_conductor:10; 
     spacing line_spacing:16; 
} 

object line_configuration:45 { 
     conductor_C underground_line_conductor:11; 
     conductor_N underground_line_conductor:11; 
     spacing line_spacing:20; 
} 

object line_configuration:46 { 
     conductor_A overhead_line_conductor:14; 
     conductor_B overhead_line_conductor:14; 
     conductor_C overhead_line_conductor:14; 
     conductor_N overhead_line_conductor:14; 
     spacing line_spacing:17; 
} 

object line_configuration:47 { 
     conductor_B overhead_line_conductor:14; 
     conductor_N overhead_line_conductor:14; 
     spacing line_spacing:16; 
} 

object line_spacing:16 { 
     distance_BN 36.0 in; 
} 

object line_spacing:17 { 
     distance_AB 48.0 in; 
     distance_BC 48.0 in; 
     distance_AC 48.0 in; 
     distance_AN 36.0 in; 
     distance_BN 36.0 in; 
     distance_CN 36.0 in; 
} 

object line_spacing:18 { 
     distance_AN 36.0 in; 
} 

object line_spacing:19 { 
     distance_AB 48.0 in; 
     distance_AN 36.0 in; 
     distance_BN 36.0 in; 
} 

object line_spacing:20 { 
     distance_CN 36.0 in; 
} 

object load:314 { 
     name R3-12-47-2_load_1; 
     parent R3-12-47-2_meter_1; 
     phases BN; 
     voltage_B -3600-6235j; 
     constant_power_B 6435.223+1906.9363j; 
     nominal_voltage 7200; 
     load_class C; 
} 

object load:315 { 
     name R3-12-47-2_load_2; 
     parent R3-12-47-2_meter_2; 
     phases AN; 
     voltage_A 7200+0.0j; 
     constant_power_A 6156.2257+1836.7523j; 
     nominal_voltage 7200; 
     load_class C; 
} 

object load:316 { 
     name R3-12-47-2_load_3; 
     parent R3-12-47-2_meter_3; 
     phases AN; 
     voltage_A 7200+0.0j; 
     constant_power_A 10260.3762+3061.2538j; 
     nominal_voltage 7200; 
     load_class C; 
} 

object load:317 { 
     name R3-12-47-2_load_4; 
     parent R3-12-47-2_meter_4; 
     phases BN; 
     voltage_B -3600-6235j; 
     constant_power_B 429.0149+127.1291j; 
     nominal_voltage 7200; 
     load_class I; 
} 

object load:318 { 
     name R3-12-47-2_load_5; 
     parent R3-12-47-2_meter_5; 
     phases BN; 
     voltage_B -3600-6235j; 
     constant_power_B 10725.3717+3178.2272j; 
     nominal_voltage 7200; 
     load_class C; 
} 

object load:319 { 
     name R3-12-47-2_load_6; 
     parent R3-12-47-2_meter_6; 
     phases AN; 
     voltage_A 7200+0.0j; 
     constant_power_A 6156.2257+1836.7523j; 
     nominal_voltage 7200; 
     // load_class C; 
	  	// object recorder {
		// property voltage_A,voltage_B,voltage_C;
		// interval 60;
		// limit 1440;
		// file "319.csv";
	// };
	object complex_assert{
		once ONCE_TRUE;
		in '2000-01-01 00:04:00 EST';
		target voltage_A;
		value +277.802-2.83292d;
		within 1;
	};
	object complex_assert{
		once ONCE_TRUE;
		in '2000-01-01 00:04:00 EST';
		target voltage_B;
		value  +0+0j;
		within 1;
	};
	object complex_assert{
		once ONCE_TRUE;
		in '2000-01-01 00:04:00 EST';
		target voltage_C;
		value +0+0j;
		within 1;
	}; 
} 

object load:320 { 
     name R3-12-47-2_load_7; 
     parent R3-12-47-2_meter_7; 
     phases AN; 
     voltage_A 7200+0.0j; 
     constant_power_A 6156.2257+1836.7523j; 
     nominal_voltage 7200; 
     load_class C; 
} 

object load:321 { 
     name R3-12-47-2_load_8; 
     parent R3-12-47-2_meter_8; 
     phases BN; 
     voltage_B -3600-6235j; 
     constant_power_B 4290.1487+1271.2909j; 
     nominal_voltage 7200; 
     load_class C; 
} 

object load:322 { 
     name R3-12-47-2_load_9; 
     parent R3-12-47-2_meter_9; 
     phases ABCN; 
     voltage_A 7200+0.0j; 
     voltage_B -3600-6235j; 
     voltage_C -3600+6235j; 
     constant_power_A 10260.3762+3061.2538j; 
     constant_power_B 10725.3717+3178.2272j; 
     constant_power_C 10432.0447+3103.7766j; 
     nominal_voltage 7200; 
     load_class C; 
} 

object load:323 { 
     name R3-12-47-2_load_10; 
     parent R3-12-47-2_meter_10; 
     phases ABN; 
     voltage_A 7200+0.0j; 
     voltage_B -3600-6235j; 
     constant_power_A 8208.3009+2449.0031j; 
     constant_power_B 8580.2974+2542.5817j; 
     nominal_voltage 7200; 
     load_class C; 
} 

object load:324 { 
     name R3-12-47-2_load_11; 
     parent R3-12-47-2_meter_11; 
     phases AN; 
     voltage_A 7200+0.0j; 
     constant_power_A 6156.2257+1836.7523j; 
     nominal_voltage 7200; 
     load_class C; 
} 

object load:325 { 
     name R3-12-47-2_load_12; 
     parent R3-12-47-2_meter_12; 
     phases ABN; 
     voltage_A 7200+0.0j; 
     voltage_B -3600-6235j; 
     constant_power_A 8208.3009+2449.0031j; 
     constant_power_B 8580.2974+2542.5817j; 
     nominal_voltage 7200; 
     load_class C; 
} 

object load:326 { 
     name R3-12-47-2_load_13; 
     parent R3-12-47-2_meter_13; 
     phases AN; 
     voltage_A 7200+0.0j; 
     constant_power_A 2052.0752+612.2508j; 
     nominal_voltage 7200; 
     load_class C; 
} 

object load:327 { 
     name R3-12-47-2_load_14; 
     parent R3-12-47-2_meter_14; 
     phases ABCN; 
     voltage_A 7200+0.0j; 
     voltage_B -3600-6235j; 
     voltage_C -3600+6235j; 
     constant_power_A 6156.2257+1836.7523j; 
     constant_power_B 6435.223+1906.9363j; 
     constant_power_C 6259.2268+1862.266j; 
     nominal_voltage 7200; 
     load_class C; 
} 

object load:328 { 
     name R3-12-47-2_load_15; 
     parent R3-12-47-2_meter_15; 
     phases ABCN; 
     voltage_A 7200+0.0j; 
     voltage_B -3600-6235j; 
     voltage_C -3600+6235j; 
     constant_power_A 20520.7523+6122.5077j; 
     constant_power_B 21450.7435+6356.4543j; 
     constant_power_C 20864.0894+6207.5532j; 
     nominal_voltage 7200; 
     load_class C; 
} 

object load:329 { 
     name R3-12-47-2_load_16; 
     parent R3-12-47-2_meter_16; 
     phases BN; 
     voltage_B -3600-6235j; 
     constant_power_B 6435.223+1906.9363j; 
     nominal_voltage 7200; 
     load_class C; 
} 

object load:330 { 
     name R3-12-47-2_load_17; 
     parent R3-12-47-2_meter_17; 
     phases ABCN; 
     voltage_A 7200+0.0j; 
     voltage_B -3600-6235j; 
     voltage_C -3600+6235j; 
     constant_power_A 20520.7523+6122.5077j; 
     constant_power_B 21450.7435+6356.4543j; 
     constant_power_C 20864.0894+6207.5532j; 
     nominal_voltage 7200; 
     load_class C; 
} 

object load:331 { 
     name R3-12-47-2_load_18; 
     parent R3-12-47-2_meter_18; 
     phases ABCN; 
     voltage_A 7200+0.0j; 
     voltage_B -3600-6235j; 
     voltage_C -3600+6235j; 
     constant_power_A 10260.3762+3061.2538j; 
     constant_power_B 10725.3717+3178.2272j; 
     constant_power_C 10432.0447+3103.7766j; 
     nominal_voltage 7200; 
     load_class C; 
} 

object load:332 { 
     name R3-12-47-2_load_19; 
     parent R3-12-47-2_meter_19; 
     phases ABCN; 
     voltage_A 7200+0.0j; 
     voltage_B -3600-6235j; 
     voltage_C -3600+6235j; 
     constant_power_A 20520.7523+6122.5077j; 
     constant_power_B 21450.7435+6356.4543j; 
     constant_power_C 20864.0894+6207.5532j; 
     nominal_voltage 7200; 
     load_class C; 
} 

object load:333 { 
     name R3-12-47-2_load_20; 
     parent R3-12-47-2_meter_20; 
     phases ABCN; 
     voltage_A 7200+0.0j; 
     voltage_B -3600-6235j; 
     voltage_C -3600+6235j; 
     constant_power_A 6156.2257+1836.7523j; 
     constant_power_B 6435.223+1906.9363j; 
     constant_power_C 6259.2268+1862.266j; 
     nominal_voltage 7200; 
     load_class C; 
} 

object load:334 { 
     name R3-12-47-2_load_21; 
     parent R3-12-47-2_meter_21; 
     phases BN; 
     voltage_B -3600-6235j; 
     constant_power_B 6435.223+1906.9363j; 
     nominal_voltage 7200; 
     load_class C; 
} 

object load:335 { 
     name R3-12-47-2_load_22; 
     parent R3-12-47-2_meter_22; 
     phases CN; 
     voltage_C -3600+6235j; 
     constant_power_C 10432.0447+3103.7766j; 
     nominal_voltage 7200; 
     load_class C; 
} 

object load:336 { 
     name R3-12-47-2_load_23; 
     parent R3-12-47-2_meter_23; 
     phases CN; 
     voltage_C -3600+6235j; 
     constant_power_C 10432.0447+3103.7766j; 
     nominal_voltage 7200; 
     load_class I; 
} 

object load:337 { 
     name R3-12-47-2_load_24; 
     parent R3-12-47-2_meter_24; 
     phases ABCN; 
     voltage_A 7200+0.0j; 
     voltage_B -3600-6235j; 
     voltage_C -3600+6235j; 
     constant_power_A 6156.2257+1836.7523j; 
     constant_power_B 6435.223+1906.9363j; 
     constant_power_C 6259.2268+1862.266j; 
     nominal_voltage 7200; 
     load_class C; 
} 

object load:338 { 
     name R3-12-47-2_load_25; 
     parent R3-12-47-2_meter_25; 
     phases ABCN; 
     voltage_A 7200+0.0j; 
     voltage_B -3600-6235j; 
     voltage_C -3600+6235j; 
     constant_power_A 20520.7523+6122.5077j; 
     constant_power_B 21450.7435+6356.4543j; 
     constant_power_C 20864.0894+6207.5532j; 
     nominal_voltage 7200; 
     load_class C; 
} 

object load:339 { 
     name R3-12-47-2_load_26; 
     parent R3-12-47-2_meter_26; 
     phases AN; 
     voltage_A 7200+0.0j; 
     constant_power_A 10260.3762+3061.2538j; 
     nominal_voltage 7200; 
     load_class C; 
} 

object load:340 { 
     name R3-12-47-2_load_27; 
     parent R3-12-47-2_meter_27; 
     phases ABCN; 
     voltage_A 7200+0.0j; 
     voltage_B -3600-6235j; 
     voltage_C -3600+6235j; 
     constant_power_A 41041.5046+12245.0154j; 
     constant_power_B 42901.487+12712.9087j; 
     constant_power_C 41728.1788+12415.1064j; 
     nominal_voltage 7200; 
     load_class C; 
} 

object load:341 { 
     name R3-12-47-2_load_28; 
     parent R3-12-47-2_meter_28; 
     phases ABCN; 
     voltage_A 7200+0.0j; 
     voltage_B -3600-6235j; 
     voltage_C -3600+6235j; 
     constant_power_A 136668.2104+40775.9011j; 
     constant_power_B 142861.9516+42333.9859j; 
     constant_power_C 138954.8355+41342.3042j; 
     nominal_voltage 7200; 
     load_class C; 
} 

object load:342 { 
     name R3-12-47-2_load_29; 
     parent R3-12-47-2_meter_29; 
     phases ABCN; 
     voltage_A 7200+0.0j; 
     voltage_B -3600-6235j; 
     voltage_C -3600+6235j; 
     constant_power_A 41041.5046+12245.0154j; 
     constant_power_B 42901.487+12712.9087j; 
     constant_power_C 41728.1788+12415.1064j; 
     nominal_voltage 7200; 
     load_class I; 
} 

object load:343 { 
     name R3-12-47-2_load_30; 
     parent R3-12-47-2_meter_30; 
     phases AN; 
     voltage_A 7200+0.0j; 
     constant_power_A 10260.3762+3061.2538j; 
     nominal_voltage 7200; 
     load_class C; 
} 

object load:344 { 
     name R3-12-47-2_load_31; 
     parent R3-12-47-2_meter_31; 
     phases ABCN; 
     voltage_A 7200+0.0j; 
     voltage_B -3600-6235j; 
     voltage_C -3600+6235j; 
     constant_power_A 10260.3762+3061.2538j; 
     constant_power_B 10725.3717+3178.2272j; 
     constant_power_C 10432.0447+3103.7766j; 
     nominal_voltage 7200; 
     load_class C; 
} 

object load:345 { 
     name R3-12-47-2_load_32; 
     parent R3-12-47-2_meter_32; 
     phases ABCN; 
     voltage_A 7200+0.0j; 
     voltage_B -3600-6235j; 
     voltage_C -3600+6235j; 
     constant_power_A 10260.3762+3061.2538j; 
     constant_power_B 10725.3717+3178.2272j; 
     constant_power_C 10432.0447+3103.7766j; 
     nominal_voltage 7200; 
     load_class C; 
} 

object load:346 { 
     name R3-12-47-2_load_33; 
     parent R3-12-47-2_meter_33; 
     phases AN; 
     voltage_A 7200+0.0j; 
     constant_power_A 10260.3762+3061.2538j; 
     nominal_voltage 7200; 
     load_class C; 
} 

object load:347 { 
     name R3-12-47-2_load_34; 
     parent R3-12-47-2_meter_34; 
     phases ABCN; 
     voltage_A 7200+0.0j; 
     voltage_B -3600-6235j; 
     voltage_C -3600+6235j; 
     constant_power_A 20520.7523+6122.5077j; 
     constant_power_B 21450.7435+6356.4543j; 
     constant_power_C 20864.0894+6207.5532j; 
     nominal_voltage 7200; 
     load_class C; 
} 

object load:348 { 
     name R3-12-47-2_load_35; 
     parent R3-12-47-2_meter_35; 
     phases CN; 
     voltage_C -3600+6235j; 
     constant_power_C 6259.2268+1862.266j; 
     nominal_voltage 7200; 
     load_class C; 
} 

object load:349 { 
     name R3-12-47-2_load_36; 
     parent R3-12-47-2_meter_36; 
     phases CN; 
     voltage_C -3600+6235j; 
     constant_power_C 6259.2268+1862.266j; 
     nominal_voltage 7200; 
     load_class C; 
} 

object load:350 { 
     name R3-12-47-2_load_37; 
     parent R3-12-47-2_meter_37; 
     phases ABCN; 
     voltage_A 7200+0.0j; 
     voltage_B -3600-6235j; 
     voltage_C -3600+6235j; 
     constant_power_A 10260.3762+3061.2538j; 
     constant_power_B 10725.3717+3178.2272j; 
     constant_power_C 10432.0447+3103.7766j; 
     nominal_voltage 7200; 
     load_class C; 
} 

object load:351 { 
     name R3-12-47-2_load_38; 
     parent R3-12-47-2_meter_38; 
     phases BN; 
     voltage_B -3600-6235j; 
     constant_power_B 10725.3717+3178.2272j; 
     nominal_voltage 7200; 
     load_class C; 
} 

object load:352 { 
     name R3-12-47-2_load_39; 
     parent R3-12-47-2_meter_39; 
     phases ABCN; 
     voltage_A 7200+0.0j; 
     voltage_B -3600-6235j; 
     voltage_C -3600+6235j; 
     constant_power_A 20520.7523+6122.5077j; 
     constant_power_B 21450.7435+6356.4543j; 
     constant_power_C 20864.0894+6207.5532j; 
     nominal_voltage 7200; 
     load_class C; 
} 

object load:353 { 
     name R3-12-47-2_load_40; 
     parent R3-12-47-2_meter_40; 
     phases BN; 
     voltage_B -3600-6235j; 
     constant_power_B 10725.3717+3178.2272j; 
     nominal_voltage 7200; 
     load_class C; 
} 

object load:354 { 
     name R3-12-47-2_load_41; 
     parent R3-12-47-2_meter_41; 
     phases ABCN; 
     voltage_A 7200+0.0j; 
     voltage_B -3600-6235j; 
     voltage_C -3600+6235j; 
     constant_power_A 20520.7523+6122.5077j; 
     constant_power_B 21450.7435+6356.4543j; 
     constant_power_C 20864.0894+6207.5532j; 
     nominal_voltage 7200; 
     load_class C; 
} 

object load:355 { 
     name R3-12-47-2_load_42; 
     parent R3-12-47-2_meter_42; 
     phases BN; 
     voltage_B -3600-6235j; 
     constant_power_B 4290.1487+1271.2909j; 
     nominal_voltage 7200; 
     load_class C;
	// object recorder {
		// property voltage_A,voltage_B,voltage_C;
		// interval 60;
		// limit 1440;
		// file "355.csv";
	// };
	object complex_assert{
		once ONCE_TRUE;
		in '2000-01-01 00:04:00 EST';
		target voltage_A;
		value +0+0j;
		within 1;
	};
	object complex_assert{
		once ONCE_TRUE;
		in '2000-01-01 00:04:00 EST';
		target voltage_B;
		value  -152.929-228.122j;
		within 1;
	};
	object complex_assert{
		once ONCE_TRUE;
		in '2000-01-01 00:04:00 EST';
		target voltage_C;
		value +0+0j;
		within 1;
	};	 
} 

object load:356 { 
     name R3-12-47-2_load_43; 
     parent R3-12-47-2_meter_43; 
     phases ABCN; 
     voltage_A 7200+0.0j; 
     voltage_B -3600-6235j; 
     voltage_C -3600+6235j; 
     constant_power_A 6156.2257+1836.7523j; 
     constant_power_B 6435.223+1906.9363j; 
     constant_power_C 6259.2268+1862.266j; 
     nominal_voltage 7200; 
     load_class C;
	// object recorder {
		// property voltage_A,voltage_B,voltage_C;
		// interval 60;
		// limit 1440;
		// file "356.csv";
	// };
	object complex_assert{
		once ONCE_TRUE;
		in '2000-01-01 00:04:00 EST';
		target voltage_A;
		value +285.431-2.29404j;
		within 1;
	};
	object complex_assert{
		once ONCE_TRUE;
		in '2000-01-01 00:04:00 EST';
		target voltage_B;
		value  -144.749-245.876j;
		within 1;
	};
	object complex_assert{
		once ONCE_TRUE;
		in '2000-01-01 00:04:00 EST';
		target voltage_C;
		value -140.729+248.389j;
		within 1;
	};	 
} 

object load:357 { 
     name R3-12-47-2_load_44; 
     parent R3-12-47-2_meter_44; 
     phases BN; 
     voltage_B -3600-6235j; 
     constant_power_B 4290.1487+1271.2909j; 
     nominal_voltage 7200; 
     load_class C; 
} 

object load:358 { 
     name R3-12-47-2_load_45; 
     parent R3-12-47-2_meter_45; 
     phases ABCN; 
     voltage_A 7200+0.0j; 
     voltage_B -3600-6235j; 
     voltage_C -3600+6235j; 
     constant_power_A 68402.5077+20408.3589j; 
     constant_power_B 71502.4783+21188.1812j; 
     constant_power_C 69546.9647+20691.8439j; 
     nominal_voltage 7200; 
     load_class I; 
} 

object load:359 { 
     name R3-12-47-2_load_46; 
     parent R3-12-47-2_meter_46; 
     phases ABCN; 
     voltage_A 7200+0.0j; 
     voltage_B -3600-6235j; 
     voltage_C -3600+6235j; 
     constant_power_A 6200+1800j; 
     constant_power_B 6400+1900j; 
     constant_power_C 6300+1900j; 
     nominal_voltage 7200; 
     load_class I; 
} 

object load:360 { 
     name R3-12-47-2_load_47; 
     parent R3-12-47-2_meter_47; 
     phases ABCN; 
     voltage_A 7200+0.0j; 
     voltage_B -3600-6235j; 
     voltage_C -3600+6235j; 
     constant_power_A 41041.5046+12245.0154j; 
     constant_power_B 42901.487+12712.9087j; 
     constant_power_C 41728.1788+12415.1064j; 
     nominal_voltage 7200; 
     load_class C;
	// object recorder {
		// property voltage_A,voltage_B,voltage_C;
		// interval 60;
		// limit 1440;
		// file "360.csv";
	// };
	object complex_assert{
		once ONCE_TRUE;
		in '2000-01-01 00:04:00 EST';
		target voltage_A;
		value +282.519-5.75152j;
		within 1;
	};
	object complex_assert{
		once ONCE_TRUE;
		in '2000-01-01 00:04:00 EST';
		target voltage_B;
		value  -146.538-241.337j;
		within 1;
	};
	object complex_assert{
		once ONCE_TRUE;
		in '2000-01-01 00:04:00 EST';
		target voltage_C;
		value -136.319+247.841j;
		within 1;
	};	 
} 

object load:361 { 
     name R3-12-47-2_load_48; 
     parent R3-12-47-2_meter_48; 
     phases AN; 
     voltage_A 7200+0.0j; 
     constant_power_A 10260.3762+3061.2538j; 
     nominal_voltage 7200; 
     load_class C; 
} 

object load:362 { 
     name R3-12-47-2_load_49; 
     parent R3-12-47-2_meter_49; 
     phases ABCN; 
     voltage_A 7200+0.0j; 
     voltage_B -3600-6235j; 
     voltage_C -3600+6235j; 
     constant_power_A 0+0j; 
     constant_power_B 0+0j; 
     constant_power_C 4172.8179+1241.5106j; 
     nominal_voltage 7200; 
     load_class C; 
} 

object load:363 { 
     name R3-12-47-2_load_50; 
     parent R3-12-47-2_meter_50; 
     phases ABCN; 
     voltage_A 7200+0.0j; 
     voltage_B -3600-6235j; 
     voltage_C -3600+6235j; 
     constant_power_A 20520.7523+6122.5077j; 
     constant_power_B 21450.7435+6356.4543j; 
     constant_power_C 20864.0894+6207.5532j; 
     nominal_voltage 7200; 
     load_class C; 
} 

object load:364 { 
     name R3-12-47-2_load_51; 
     parent R3-12-47-2_meter_51; 
     phases ABCN; 
     voltage_A 7200+0.0j; 
     voltage_B -3600-6235j; 
     voltage_C -3600+6235j; 
     constant_power_A 6156.2257+1836.7523j; 
     constant_power_B 6435.223+1906.9363j; 
     constant_power_C 6259.2268+1862.266j; 
     nominal_voltage 7200; 
     load_class C; 
} 

object load:365 { 
     name R3-12-47-2_load_52; 
     parent R3-12-47-2_meter_52; 
     phases ABCN; 
     voltage_A 7200+0.0j; 
     voltage_B -3600-6235j; 
     voltage_C -3600+6235j; 
     constant_power_A 10260.3762+3061.2538j; 
     constant_power_B 10725.3717+3178.2272j; 
     constant_power_C 10432.0447+3103.7766j; 
     nominal_voltage 7200; 
     load_class C; 
} 

object load:366 { 
     name R3-12-47-2_load_53; 
     parent R3-12-47-2_meter_53; 
     phases ABCN; 
     voltage_A 7200+0.0j; 
     voltage_B -3600-6235j; 
     voltage_C -3600+6235j; 
     constant_power_A 20520.7523+6122.5077j; 
     constant_power_B 21450.7435+6356.4543j; 
     constant_power_C 20864.0894+6207.5532j; 
     nominal_voltage 7200; 
     load_class C; 
} 

object load:367 { 
     name R3-12-47-2_load_54; 
     parent R3-12-47-2_meter_54; 
     phases ABCN; 
     voltage_A 7200+0.0j; 
     voltage_B -3600-6235j; 
     voltage_C -3600+6235j; 
     constant_power_A 6156.2257+1836.7523j; 
     constant_power_B 6435.223+1906.9363j; 
     constant_power_C 6259.2268+1862.266j; 
     nominal_voltage 7200; 
     load_class C; 
} 

object load:368 { 
     name R3-12-47-2_load_55; 
     parent R3-12-47-2_meter_55; 
     phases ABCN; 
     voltage_A 7200+0.0j; 