// $Id: R4-12.47-1.glm
// 13.8 kV feeder
//*********************************************
// validates voltages with FBS at selected load, node, meter, triplex_node, and
// triplex_meter objects
//
// also validates power_in/out/losses at select overhead lines
// written by alek332
// off by more than 1 at certain nodes; node 50 logs values for 
// voltage_A/C when the should be 0; search for @off
clock{
	timezone EST+8EDT;
	timestamp '2000-01-01 0:00:00';
	stoptime '2000-01-01 1:00:00';
}

#set profiler=1
//*********************************************
// modules

module assert;
module tape;
module powerflow{
	solver_method FBS;
	default_maximum_voltage_error 1e-6;
	line_limits FALSE;
};
//*********************************************

object regulator:3886 {
	name R4-12-47-1_reg_1;
	from R4-12-47-1_node_572;
	to R4-12-47-1_meter_76;
	phases ABCN;
	configuration regulator_configuration:3887;
	// object recorder {
		 // property tap_A,tap_B,tap_C,power_in_A.real,power_in_A.imag,power_in_B.real,power_in_B.imag,power_in_C.real,power_in_C.imag,power_in.real,power_in.imag;
		 // limit 1440;
		 // interval 60;
		 // file "R4-12.47-1_reg_output.csv";
	// };
}


object regulator_configuration:3887 {
	name feeder_reg_cfg;
	Control OUTPUT_VOLTAGE;
	band_center 7967.0;
	band_width 133;
	connect_type WYE_WYE;
	time_delay 30;
	raise_taps 16;
	lower_taps 16;
	regulation 0.10;
	tap_pos_A 0;
	tap_pos_B 0;
	tap_pos_C 0;
}


object capacitor:3883 {
	name R4-12-47-1_cap_1;
	phases ABCN;
	pt_phase B;
	parent R4-12-47-1_node_532;
	phases_connected ABC;
	control VOLT;
	voltage_set_high 7300; 
	voltage_set_low 7100;
	capacitor_A 0.1 MVAr;
	capacitor_B 0.1 MVAr;
	capacitor_C 0.1 MVAr;
	control_level INDIVIDUAL;
	time_delay 30.0;
	dwell_time 30.0;
	cap_nominal_voltage 7970;
	nominal_voltage 7967.43;
	// object recorder {
		// property "switchA,switchB,switchC,voltage_A.real,voltage_A.imag,voltage_B.real,voltage_B.imag,voltage_C.real,voltage_C.imag";
		// file R4-12.47-1_capacitor1.csv;
		// interval 60;
		// limit 1440;
	// };
}

object capacitor:3884 {
	name R4-12-47-1_cap_2;
	phases ABCN;
	pt_phase B;
	parent R4-12-47-1_node_533;
	phases_connected ABC;
	control VOLT;
	voltage_set_high 7300; 
	voltage_set_low 7100;
	capacitor_A 0.3 MVAr;
	capacitor_B 0.3 MVAr;
	capacitor_C 0.3 MVAr;
	control_level INDIVIDUAL;
	time_delay 30.0;
	dwell_time 30.0;
	cap_nominal_voltage 7970;
	nominal_voltage 7967.43;
	object recorder {
		property "switchA,switchB,switchC,voltage_A.real,voltage_A.imag,voltage_B.real,voltage_B.imag,voltage_C.real,voltage_C.imag";
		file R4-12.47-1_capacitor2.csv;
		interval 60;
		limit 144;
	};
}


object fuse:3795 {
	name R4-12-47-1_fuse_1;
	phases CN;
	from R4-12-47-1_node_515;
	to R4-12-47-1_node_2;
	current_limit 100;
	status CLOSED;
}

object fuse:3796 {
	name R4-12-47-1_fuse_2;
	phases CN;
	from R4-12-47-1_node_7;
	to R4-12-47-1_node_6;
	current_limit 100;
	status CLOSED;
}

object fuse:3797 {
	name R4-12-47-1_fuse_3;
	phases CN;
	from R4-12-47-1_node_499;
	to R4-12-47-1_node_29;
	current_limit 40;
	status CLOSED;
}

object fuse:3798 {
	name R4-12-47-1_fuse_4;
	phases ABCN;
	from R4-12-47-1_node_40;
	to R4-12-47-1_node_39;
	current_limit 100;
	status CLOSED;
}

object fuse:3799 {
	name R4-12-47-1_fuse_5;
	phases AN;
	from R4-12-47-1_node_49;
	to R4-12-47-1_node_54;
	current_limit 60;
	status CLOSED;
}

object fuse:3800 {
	name R4-12-47-1_fuse_6;
	phases AN;
	from R4-12-47-1_node_55;
	to R4-12-47-1_node_60;
	current_limit 60;
	status CLOSED;
}

object fuse:3801 {
	name R4-12-47-1_fuse_7;
	phases BN;
	from R4-12-47-1_node_62;
	to R4-12-47-1_node_63;
	current_limit 60;
	status CLOSED;
}

object fuse:3802 {
	name R4-12-47-1_fuse_8;
	phases CN;
	from R4-12-47-1_node_56;
	to R4-12-47-1_node_64;
	current_limit 60;
	status CLOSED;
}

object fuse:3803 {
	name R4-12-47-1_fuse_9;
	phases CN;
	from R4-12-47-1_node_71;
	to R4-12-47-1_node_72;
	current_limit 40;
	status CLOSED;
}

object fuse:3804 {
	name R4-12-47-1_fuse_10;
	phases BN;
	from R4-12-47-1_node_78;
	to R4-12-47-1_node_77;
	current_limit 60;
	status CLOSED;
}

object fuse:3805 {
	name R4-12-47-1_fuse_11;
	phases ACN;
	from R4-12-47-1_node_510;
	to R4-12-47-1_node_85;
	current_limit 40;
	status CLOSED;
}

object fuse:3806 {
	name R4-12-47-1_fuse_12;
	phases BN;
	from R4-12-47-1_node_89;
	to R4-12-47-1_node_88;
	current_limit 30;
	status CLOSED;
}

object fuse:3807 {
	name R4-12-47-1_fuse_13;
	phases BN;
	from R4-12-47-1_node_105;
	to R4-12-47-1_node_92;
	current_limit 40;
	status CLOSED;
}

object fuse:3808 {
	name R4-12-47-1_fuse_14;
	phases CN;
	from R4-12-47-1_node_111;
	to R4-12-47-1_node_112;
	current_limit 40;
	status CLOSED;
}

object fuse:3809 {
	name R4-12-47-1_fuse_15;
	phases BN;
	from R4-12-47-1_node_115;
	to R4-12-47-1_node_116;
	current_limit 15;
	status CLOSED;
}

object fuse:3810 {
	name R4-12-47-1_fuse_16;
	phases BN;
	from R4-12-47-1_node_119;
	to R4-12-47-1_node_120;
	current_limit 50;
	status CLOSED;
}

object fuse:3811 {
	name R4-12-47-1_fuse_17;
	phases ACN;
	from R4-12-47-1_node_494;
	to R4-12-47-1_node_122;
	current_limit 40;
	status CLOSED;
}

object fuse:3812 {
	name R4-12-47-1_fuse_18;
	phases AN;
	from R4-12-47-1_node_127;
	to R4-12-47-1_node_128;
	current_limit 60;
	status CLOSED;
}

object fuse:3813 {
	name R4-12-47-1_fuse_19;
	phases AN;
	from R4-12-47-1_node_41;
	to R4-12-47-1_node_129;
	current_limit 60;
	status CLOSED;
}

object fuse:3814 {
	name R4-12-47-1_fuse_20;
	phases CN;
	from R4-12-47-1_node_504;
	to R4-12-47-1_node_133;
	current_limit 15;
	status CLOSED;
}

object fuse:3815 {
	name R4-12-47-1_fuse_21;
	phases BN;
	from R4-12-47-1_node_560;
	to R4-12-47-1_node_140;
	current_limit 60;
	status CLOSED;
}

object fuse:3816 {
	name R4-12-47-1_fuse_22;
	phases AN;
	from R4-12-47-1_node_144;
	to R4-12-47-1_node_143;
	current_limit 60;
	status CLOSED;
}

object fuse:3817 {
	name R4-12-47-1_fuse_23;
	phases BN;
	from R4-12-47-1_node_149;
	to R4-12-47-1_node_148;
	current_limit 60;
	status CLOSED;
}

object fuse:3818 {
	name R4-12-47-1_fuse_24;
	phases CN;
	from R4-12-47-1_node_151;
	to R4-12-47-1_node_152;
	current_limit 60;
	status CLOSED;
}

object fuse:3819 {
	name R4-12-47-1_fuse_25;
	phases CN;
	from R4-12-47-1_node_150;
	to R4-12-47-1_node_153;
	current_limit 60;
	status CLOSED;
}

object fuse:3820 {
	name R4-12-47-1_fuse_26;
	phases BN;
	from R4-12-47-1_node_164;
	to R4-12-47-1_node_165;
	current_limit 15;
	status CLOSED;
}

object fuse:3821 {
	name R4-12-47-1_fuse_27;
	phases AN;
	from R4-12-47-1_node_168;
	to R4-12-47-1_node_167;
	current_limit 40;
	status CLOSED;
}

object fuse:3822 {
	name R4-12-47-1_fuse_28;
	phases AN;
	from R4-12-47-1_node_171;
	to R4-12-47-1_node_172;
	current_limit 40;
	status CLOSED;
}

object fuse:3823 {
	name R4-12-47-1_fuse_29;
	phases AN;
	from R4-12-47-1_node_174;
	to R4-12-47-1_node_173;
	current_limit 25;
	status CLOSED;
}

object fuse:3824 {
	name R4-12-47-1_fuse_30;
	phases AN;
	from R4-12-47-1_node_176;
	to R4-12-47-1_node_177;
	current_limit 25;
	status CLOSED;
}

object fuse:3825 {
	name R4-12-47-1_fuse_31;
	phases BN;
	from R4-12-47-1_node_489;
	to R4-12-47-1_node_183;
	current_limit 100;
	status CLOSED;
}

object fuse:3826 {
	name R4-12-47-1_fuse_32;
	phases ABN;
	from R4-12-47-1_node_491;
	to R4-12-47-1_node_187;
	current_limit 60;
	status CLOSED;
}

object fuse:3827 {
	name R4-12-47-1_fuse_33;
	phases BCN;
	from R4-12-47-1_node_495;
	to R4-12-47-1_node_201;
	current_limit 40;
	status CLOSED;
}

object fuse:3828 {
	name R4-12-47-1_fuse_34;
	phases BN;
	from R4-12-47-1_node_497;
	to R4-12-47-1_node_206;
	current_limit 40;
	status CLOSED;
}

object fuse:3829 {
	name R4-12-47-1_fuse_35;
	phases ABN;
	from R4-12-47-1_node_500;
	to R4-12-47-1_node_216;
	current_limit 40;
	status CLOSED;
}

object fuse:3830 {
	name R4-12-47-1_fuse_36;
	phases AN;
	from R4-12-47-1_node_502;
	to R4-12-47-1_node_220;
	current_limit 40;
	status CLOSED;
}

object fuse:3831 {
	name R4-12-47-1_fuse_37;
	phases ABCN;
	from R4-12-47-1_node_503;
	to R4-12-47-1_node_223;
	current_limit 40;
	status CLOSED;
}

object fuse:3832 {
	name R4-12-47-1_fuse_38;
	phases CN;
	from R4-12-47-1_node_511;
	to R4-12-47-1_node_240;
	current_limit 40;
	status CLOSED;
}

object fuse:3833 {
	name R4-12-47-1_fuse_39;
	phases BN;
	from R4-12-47-1_node_512;
	to R4-12-47-1_node_250;
	current_limit 100;
	status CLOSED;
}

object fuse:3834 {
	name R4-12-47-1_fuse_40;
	phases BN;
	from R4-12-47-1_node_16;
	to R4-12-47-1_node_253;
	current_limit 100;
	status CLOSED;
}

object fuse:3835 {
	name R4-12-47-1_fuse_41;
	phases CN;
	from R4-12-47-1_node_513;
	to R4-12-47-1_node_255;
	current_limit 100;
	status CLOSED;
}

object fuse:3836 {
	name R4-12-47-1_fuse_42;
	phases BN;
	from R4-12-47-1_node_514;
	to R4-12-47-1_node_257;
	current_limit 100;
	status CLOSED;
}

object fuse:3837 {
	name R4-12-47-1_fuse_43;
	phases CN;
	from R4-12-47-1_node_516;
	to R4-12-47-1_node_268;
	current_limit 100;
	status CLOSED;
}

object fuse:3838 {
	name R4-12-47-1_fuse_44;
	phases CN;
	from R4-12-47-1_node_519;
	to R4-12-47-1_node_277;
	current_limit 60;
	status CLOSED;
}

object fuse:3839 {
	name R4-12-47-1_fuse_45;
	phases CN;
	from R4-12-47-1_node_521;
	to R4-12-47-1_node_290;
	current_limit 100;
	status CLOSED;
}

object fuse:3840 {
	name R4-12-47-1_fuse_46;
	phases CN;
	from R4-12-47-1_node_526;
	to R4-12-47-1_node_314;
	current_limit 60;
	status CLOSED;
}

object fuse:3841 {
	name R4-12-47-1_fuse_47;
	phases ABCN;
	from R4-12-47-1_node_4;
	to R4-12-47-1_node_337;
	current_limit 100;
	status CLOSED;
}

object fuse:3842 {
	name R4-12-47-1_fuse_48;
	phases AN;
	from R4-12-47-1_node_527;
	to R4-12-47-1_node_338;
	current_limit 60;
	status CLOSED;
}

object fuse:3843 {
	name R4-12-47-1_fuse_49;
	phases AN;
	from R4-12-47-1_node_530;
	to R4-12-47-1_node_346;
	current_limit 100;
	status CLOSED;
}

object fuse:3844 {
	name R4-12-47-1_fuse_50;
	phases BN;
	from R4-12-47-1_node_531;
	to R4-12-47-1_node_359;
	current_limit 100;
	status CLOSED;
}

object fuse:3845 {
	name R4-12-47-1_fuse_51;
	phases AN;
	from R4-12-47-1_node_69;
	to R4-12-47-1_node_376;
	current_limit 60;
	status CLOSED;
}

object fuse:3846 {
	name R4-12-47-1_fuse_52;
	phases AN;
	from R4-12-47-1_node_490;
	to R4-12-47-1_node_388;
	current_limit 40;
	status CLOSED;
}

object fuse:3847 {
	name R4-12-47-1_fuse_53;
	phases ABN;
	from R4-12-47-1_node_492;
	to R4-12-47-1_node_393;
	current_limit 100;
	status CLOSED;
}

object fuse:3848 {
	name R4-12-47-1_fuse_54;
	phases BN;
	from R4-12-47-1_node_20;
	to R4-12-47-1_node_397;
	current_limit 40;
	status CLOSED;
}

object fuse:3849 {
	name R4-12-47-1_fuse_55;
	phases CN;
	from R4-12-47-1_node_496;
	to R4-12-47-1_node_403;
	current_limit 40;
	status CLOSED;
}

object fuse:3850 {
	name R4-12-47-1_fuse_56;
	phases CN;
	from R4-12-47-1_node_498;
	to R4-12-47-1_node_406;
	current_limit 40;
	status CLOSED;
}

object fuse:3851 {
	name R4-12-47-1_fuse_57;
	phases BN;
	from R4-12-47-1_node_1;
	to R4-12-47-1_node_409;
	current_limit 40;
	status CLOSED;
}

object fuse:3852 {
	name R4-12-47-1_fuse_58;
	phases BN;
	from R4-12-47-1_node_509;
	to R4-12-47-1_node_411;
	current_limit 40;
	status CLOSED;
}

object fuse:3853 {
	name R4-12-47-1_fuse_59;
	phases CN;
	from R4-12-47-1_node_15;
	to R4-12-47-1_node_413;
	current_limit 100;
	status CLOSED;
}

object fuse:3854 {
	name R4-12-47-1_fuse_60;
	phases CN;
	from R4-12-47-1_node_110;
	to R4-12-47-1_node_419;
	current_limit 50;
	status CLOSED;
}

object fuse:3855 {
	name R4-12-47-1_fuse_61;
	phases ABCN;
	from R4-12-47-1_node_3;
	to R4-12-47-1_node_429;
	current_limit 100;
	status CLOSED;
}

object fuse:3856 {
	name R4-12-47-1_fuse_62;
	phases AN;
	from R4-12-47-1_node_520;
	to R4-12-47-1_node_435;
	current_limit 100;
	status CLOSED;
}

object fuse:3857 {
	name R4-12-47-1_fuse_63;
	phases ACN;
	from R4-12-47-1_node_522;
	to R4-12-47-1_node_437;
	current_limit 100;
	status CLOSED;
}

object fuse:3858 {
	name R4-12-47-1_fuse_64;
	phases BN;
	from R4-12-47-1_node_523;
	to R4-12-47-1_node_445;
	current_limit 60;
	status CLOSED;
}

object fuse:3859 {
	name R4-12-47-1_fuse_65;
	phases CN;
	from R4-12-47-1_node_524;
	to R4-12-47-1_node_446;
	current_limit 60;
	status CLOSED;
}

object fuse:3860 {
	name R4-12-47-1_fuse_66;
	phases AN;
	from R4-12-47-1_node_525;
	to R4-12-47-1_node_449;
	current_limit 60;
	status CLOSED;
}

object fuse:3861 {
	name R4-12-47-1_fuse_67;
	phases CN;
	from R4-12-47-1_node_505;
	to R4-12-47-1_node_506;
	current_limit 40;
	status CLOSED;
}

object fuse:3862 {
	name R4-12-47-1_fuse_68;
	phases CN;
	from R4-12-47-1_node_506;
	to R4-12-47-1_node_534;
	current_limit 15;
	status CLOSED;
}

object fuse:3863 {
	name R4-12-47-1_fuse_69;
	phases CN;
	from R4-12-47-1_node_507;
	to R4-12-47-1_node_535;
	current_limit 25;
	status CLOSED;
}

object fuse:3864 {
	name R4-12-47-1_fuse_70;
	phases AN;
	from R4-12-47-1_node_508;
	to R4-12-47-1_node_536;
	current_limit 40;
	status CLOSED;
}

object fuse:3865 {
	name R4-12-47-1_fuse_71;
	phases ABCN;
	from R4-12-47-1_node_517;
	to R4-12-47-1_node_537;
	current_limit 15;
	status CLOSED;
}

object fuse:3866 {
	name R4-12-47-1_fuse_72;
	phases BN;
	from R4-12-47-1_node_529;
	to R4-12-47-1_node_538;
	current_limit 30;
	status CLOSED;
}

object fuse:3867 {
	name R4-12-47-1_fuse_73;
	phases BN;
	from R4-12-47-1_node_487;
	to R4-12-47-1_node_539;
	current_limit 60;
	status CLOSED;
}

object fuse:3868 {
	name R4-12-47-1_fuse_74;
	phases BN;
	from R4-12-47-1_node_528;
	to R4-12-47-1_node_540;
	current_limit 60;
	status CLOSED;
}

object fuse:3869 {
	name R4-12-47-1_fuse_75;
	phases AN;
	from R4-12-47-1_node_548;
	to R4-12-47-1_node_549;
	current_limit 40;
	status CLOSED;
}

object fuse:3870 {
	name R4-12-47-1_fuse_76;
	phases CN;
	from R4-12-47-1_node_556;
	to R4-12-47-1_node_554;
	current_limit 40;
	status CLOSED;
}

object fuse:3871 {
	name R4-12-47-1_fuse_77;
	phases CN;
	from R4-12-47-1_node_558;
	to R4-12-47-1_node_559;
	current_limit 25;
	status CLOSED;
}

object fuse:3872 {
	name R4-12-47-1_fuse_78;
	phases BN;
	from R4-12-47-1_node_43;
	to R4-12-47-1_node_563;
	current_limit 100;
	status CLOSED;
}

object fuse:3873 {
	name R4-12-47-1_fuse_79;
	phases BN;
	from R4-12-47-1_node_564;
	to R4-12-47-1_node_565;
	current_limit 15;
	status CLOSED;
}


object line_configuration:21 {
	conductor_B overhead_line_conductor:2;
	conductor_N overhead_line_conductor:2;
	spacing line_spacing:8;
}

object line_configuration:22 {
	conductor_C overhead_line_conductor:2;
	conductor_N overhead_line_conductor:2;
	spacing line_spacing:9;
}

object line_configuration:23 {
	conductor_A overhead_line_conductor:3;
	conductor_B overhead_line_conductor:3;
	conductor_C overhead_line_conductor:3;
	conductor_N overhead_line_conductor:3;
	spacing line_spacing:10;
}

object line_configuration:24 {
	conductor_A overhead_line_conductor:3;
	conductor_B overhead_line_conductor:3;
	conductor_C overhead_line_conductor:3;
	conductor_N overhead_line_conductor:3;
	spacing line_spacing:10;
}

object line_configuration:25 {
	conductor_A overhead_line_conductor:4;
	conductor_B overhead_line_conductor:4;
	conductor_C overhead_line_conductor:4;
	conductor_N overhead_line_conductor:4;
	spacing line_spacing:10;
}

object line_configuration:26 {
	conductor_A overhead_line_conductor:5;
	conductor_B overhead_line_conductor:5;
	conductor_C overhead_line_conductor:5;
	conductor_N overhead_line_conductor:5;
	spacing line_spacing:10;
}

object line_configuration:27 {
	conductor_A overhead_line_conductor:5;
	conductor_B overhead_line_conductor:5;
	conductor_C overhead_line_conductor:5;
	conductor_N overhead_line_conductor:5;
	spacing line_spacing:10;
}

object line_configuration:28 {
	conductor_A overhead_line_conductor:2;
	conductor_N overhead_line_conductor:2;
	spacing line_spacing:11;
}

object line_configuration:29 {
	conductor_A overhead_line_conductor:3;
	conductor_C overhead_line_conductor:3;
	conductor_N overhead_line_conductor:3;
	spacing line_spacing:12;
}

object line_configuration:30 {
	conductor_A overhead_line_conductor:6;
	conductor_B overhead_line_conductor:6;
	conductor_C overhead_line_conductor:6;
	conductor_N overhead_line_conductor:6;
	spacing line_spacing:10;
}

object line_configuration:31 {
	conductor_A overhead_line_conductor:2;
	conductor_B overhead_line_conductor:2;
	conductor_N overhead_line_conductor:2;
	spacing line_spacing:13;
}

object line_configuration:32 {
	conductor_A overhead_line_conductor:2;
	conductor_B overhead_line_conductor:2;
	conductor_C overhead_line_conductor:2;
	conductor_N overhead_line_conductor:2;
	spacing line_spacing:10;
}

object line_configuration:33 {
	conductor_A overhead_line_conductor:2;
	conductor_C overhead_line_conductor:2;
	conductor_N overhead_line_conductor:2;
	spacing line_spacing:12;
}

object line_configuration:34 {
	conductor_A underground_line_conductor:7;
	conductor_N underground_line_conductor:7;
	spacing line_spacing:14;
}

object line_configuration:35 {
	conductor_B overhead_line_conductor:2;
	conductor_C overhead_line_conductor:2;
	conductor_N overhead_line_conductor:2;
	spacing line_spacing:15;
}

object line_configuration:36 {
	conductor_C underground_line_conductor:7;
	conductor_N underground_line_conductor:7;
	spacing line_spacing:16;
}

object line_configuration:37 {
	conductor_B underground_line_conductor:7;
	conductor_N underground_line_conductor:7;
	spacing line_spacing:17;
}

object line_configuration:38 {
	conductor_B overhead_line_conductor:3;
	conductor_N overhead_line_conductor:3;
	spacing line_spacing:8;
}

object line_configuration:39 {
	conductor_C overhead_line_conductor:3;
	conductor_N overhead_line_conductor:3;
	spacing line_spacing:9;
}

object line_configuration:40 {
	conductor_A overhead_line_conductor:4;
	conductor_B overhead_line_conductor:4;
	conductor_C overhead_line_conductor:4;
	conductor_N overhead_line_conductor:4;
	spacing line_spacing:10;
}

object line_configuration:41 {
	conductor_A overhead_line_conductor:3;
	conductor_B overhead_line_conductor:3;
	conductor_N overhead_line_conductor:3;
	spacing line_spacing:13;
}

object line_configuration:42 {
	conductor_A overhead_line_conductor:2;
	conductor_N overhead_line_conductor:2;
	spacing line_spacing:11;
}

object line_configuration:43 {
	conductor_B overhead_line_conductor:2;
	conductor_C overhead_line_conductor:2;
	conductor_N overhead_line_conductor:2;
	spacing line_spacing:18;
}

object line_configuration:44 {
	conductor_A overhead_line_conductor:2;
	conductor_B overhead_line_conductor:2;
	conductor_C overhead_line_conductor:2;
	conductor_N overhead_line_conductor:2;
	spacing line_spacing:10;
}

object line_configuration:45 {
	conductor_C overhead_line_conductor:2;
	conductor_N overhead_line_conductor:2;
	spacing line_spacing:9;
}

object line_configuration:46 {
	conductor_A overhead_line_conductor:3;
	conductor_N overhead_line_conductor:3;
	spacing line_spacing:11;
}

object line_configuration:47 {
	conductor_A underground_line_conductor:7;
	conductor_B underground_line_conductor:7;
	conductor_C underground_line_conductor:7;
	conductor_N underground_line_conductor:7;
	spacing line_spacing:19;
}

object line_configuration:48 {
	conductor_A overhead_line_conductor:3;
	conductor_B overhead_line_conductor:3;
	conductor_C overhead_line_conductor:3;
	conductor_N overhead_line_conductor:3;
	spacing line_spacing:20;
}

object line_configuration:49 {
	conductor_B overhead_line_conductor:2;
	conductor_C overhead_line_conductor:2;
	conductor_N overhead_line_conductor:2;
	spacing line_spacing:15;
}


object line_spacing:8 {
	distance_BN 69.99999999996 in;
}

object line_spacing:9 {
	distance_CN 69.99999999996 in;
}

object line_spacing:10 {
	distance_AB 53.19999999996 in;
	distance_BC 53.19999999996 in;
	distance_AC 53.19999999996 in;
	distance_AN 80.49999999996 in;
	distance_BN 80.49999999996 in;
	distance_CN 80.49999999996 in;
}

object line_spacing:11 {
	distance_AN 69.99999999996 in;
}

object line_spacing:12 {
	distance_AC 87.99999999996 in;
	distance_AN 19.2 in;
	distance_CN 19.2 in;
}

object line_spacing:13 {
	distance_AB 87.99999999996 in;
	distance_AN 19.2 in;
	distance_BN 19.2 in;
}

object line_spacing:14 {
	distance_AN 360.0 in;
}

object line_spacing:15 {
	distance_BC 87.99999999996 in;
	distance_BN 19.2 in;
	distance_CN 19.2 in;
}

object line_spacing:16 {
	distance_CN 360.0 in;
}

object line_spacing:17 {
	distance_BN 360.0 in;
}

object line_spacing:18 {
	distance_BC 48.0 in;
	distance_BN 20.79999999996 in;
	distance_CN 20.79999999996 in;
}

object line_spacing:19 {
	distance_AB 12.0 in;
	distance_BC 12.0 in;
	distance_AC 12.0 in;
	distance_AN 360.0 in;
	distance_BN 360.0 in;
	distance_CN 360.0 in;
}

object line_spacing:20 {
	distance_AB 60.50000000004 in;
	distance_BC 60.50000000004 in;
	distance_AC 60.50000000004 in;
	distance_AN 114.99999999996 in;
	distance_BN 114.99999999996 in;
	distance_CN 114.99999999996 in;
}


object load:621 {
	name R4-12-47-1_load_1;
	parent R4-12-47-1_meter_1;
	phases CN;
	voltage_C -3983.72+6900j;
	constant_power_C 270.717162+138.230028j;
	nominal_voltage 7967.43;
	load_class C;
}

object load:622 {
	name R4-12-47-1_load_2;
	parent R4-12-47-1_meter_2;
	phases ABCN;
	voltage_A 7967.43+0.0j;
	voltage_B -3983.72-6900j;
	voltage_C -3983.72+6900j;
	constant_power_A 11108.1724+5787.4574j;
	constant_power_B 0+0j;
	constant_power_C 11279.8818+5759.5844j;
	nominal_voltage 7967.43;
	load_class C;
}

object load:623 {
	name R4-12-47-1_load_3;
	parent R4-12-47-1_meter_3;
	phases ABCN;
	voltage_A 7967.43+0.0j;
	voltage_B -3983.72-6900j;
	voltage_C -3983.72+6900j;
	constant_power_A 6664.9035+3472.4745j;
	constant_power_B 0+0j;
	constant_power_C 0+0j;
	nominal_voltage 7967.43;
	load_class C;
}

object load:624 {
	name R4-12-47-1_load_4;
	parent R4-12-47-1_meter_4;
	phases ABCN;
	voltage_A 7967.43+0.0j;
	voltage_B -3983.72-6900j;
	voltage_C -3983.72+6900j;
	constant_power_A 22216.3449+11574.9148j;
	constant_power_B 0+0j;
	constant_power_C 4511.9527+2303.8338j;
	nominal_voltage 7967.43;
	load_class C;
}

object load:625 {
	name R4-12-47-1_load_5;
	parent R4-12-47-1_meter_5;
	phases ABCN;
	voltage_A 7967.43+0.0j;
	voltage_B -3983.72-6900j;
	voltage_C -3983.72+6900j;
	constant_power_A 74202.5918+38660.2156j;
	constant_power_B 61610.3216+33216.6484j;
	constant_power_C 75349.6104+38474.024j;
	nominal_voltage 7967.43;
	load_class C;
}

object load:626 {
	name R4-12-47-1_load_6;
	parent R4-12-47-1_meter_6;
	phases ABN;
	voltage_A 7967.43+0.0j;
	voltage_B -3983.72-6900j;
	constant_power_A 11108.1724+5787.4574j;
	constant_power_B 9223.102+4972.5522j;
	nominal_voltage 7967.43;
	load_class C;
}

object load:627 {
	name R4-12-47-1_load_7;
	parent R4-12-47-1_meter_7;
	phases ABCN;
	voltage_A 7967.43+0.0j;
	voltage_B -3983.72-6900j;
	voltage_C -3983.72+6900j;
	constant_power_A 0+0j;
	constant_power_B 1228.5171864+662.3439597j;
	constant_power_C 0+0j;
	nominal_voltage 7967.43;
	load_class C;
}

object load:628 {
	name R4-12-47-1_load_8;
	parent R4-12-47-1_meter_8;
	phases ABCN;
	voltage_A 7967.43+0.0j;
	voltage_B -3983.72-6900j;
	voltage_C -3983.72+6900j;
	constant_power_A 22216.3449+11574.9148j;
	constant_power_B 18446.2041+9945.1043j;
	constant_power_C 22559.7636+11519.1689j;
	nominal_voltage 7967.43;
	load_class C;
}

object load:629 {
	name R4-12-47-1_load_9;
	parent R4-12-47-1_meter_9;
	phases ACN;
	voltage_A 7967.43+0.0j;
	voltage_C -3983.72+6900j;
	constant_power_A 6331.658268+3298.850718j;
	constant_power_C 2571.813039+1313.185266j;
	nominal_voltage 7967.43;
	load_class C;
}

object load:630 {
	name R4-12-47-1_load_10;
	parent R4-12-47-1_meter_10;
	phases CN;
	voltage_C -3983.72+6900j;
	constant_power_C 225.597635+115.19169j;
	nominal_voltage 7967.43;
	load_class C;
}

object load:631 {
	name R4-12-47-1_load_11;
	parent R4-12-47-1_meter_11;
	phases ABCN;
	voltage_A 7967.43+0.0j;
	voltage_B -3983.72-6900j;
	voltage_C -3983.72+6900j;
	constant_power_A 11108.1724+5787.4574j;
	constant_power_B 9223.102+4972.5522j;
	constant_power_C 0+0j;
	nominal_voltage 7967.43;
	load_class C;
}

object load:632 {
	name R4-12-47-1_load_12;
	parent R4-12-47-1_meter_12;
	phases ACN;
	voltage_A 7967.43+0.0j;
	voltage_C -3983.72+6900j;
	constant_power_A 22216.3449+11574.9148j;
	constant_power_C 22559.7636+11519.1689j;
	nominal_voltage 7967.43;
	load_class C;
}

object load:633 {
	name R4-12-47-1_load_13;
	parent R4-12-47-1_meter_13;
	phases CN;
	voltage_C -3983.72+6900j;
	constant_power_C 11268.6019182+5753.8248489j;
	nominal_voltage 7967.43;
	load_class C;
}

object load:634 {
	name R4-12-47-1_load_14;
	parent R4-12-47-1_meter_14;
	phases BN;
	voltage_B -3983.72-6900j;
	constant_power_B 3071.292966+1655.8598826j;
	nominal_voltage 7967.43;
	load_class C;
}

object load:635 {
	name R4-12-47-1_load_15;
	parent R4-12-47-1_meter_15;
	phases BN;
	voltage_B -3983.72-6900j;
	constant_power_B 3071.292966+1655.8598826j;
	nominal_voltage 7967.43;
	load_class C;
}

object load:636 {
	name R4-12-47-1_load_16;
	parent R4-12-47-1_meter_16;
	phases AN;
	voltage_A 7967.43+0.0j;
	constant_power_A 7398.0428517+3854.4466284j;
	nominal_voltage 7967.43;
	load_class C;
}

object load:637 {
	name R4-12-47-1_load_17;
	parent R4-12-47-1_meter_17;
	phases ABN;
	voltage_A 7967.43+0.0j;
	voltage_B -3983.72-6900j;
	constant_power_A 3699.0214092+1927.2233142j;
	constant_power_B 3071.292966+1655.8598826j;
	nominal_voltage 7967.43;
	load_class C;
}

object load:638 {
	name R4-12-47-1_load_18;
	parent R4-12-47-1_meter_18;
	phases ABCN;
	voltage_A 7967.43+0.0j;
	voltage_B -3983.72-6900j;
	voltage_C -3983.72+6900j;
	constant_power_A 11108.1724+5787.4574j;
	constant_power_B 9223.102+4972.5522j;
	constant_power_C 0+0j;
	nominal_voltage 7967.43;
	load_class C;
}

object load:639 {
	name R4-12-47-1_load_19;
	parent R4-12-47-1_meter_19;
	phases ABCN;
	voltage_A 7967.43+0.0j;
	voltage_B -3983.72-6900j;
	voltage_C -3983.72+6900j;
	constant_power_A 14796.0856701+7708.8932901j;
	constant_power_B 12285.1719306+6623.4394638j;
	constant_power_C 15024.8025576+7671.7664541j;
	nominal_voltage 7967.43;
	load_class C;
	// object recorder {
		// property voltage_A,voltage_B,voltage_C;
		// interval 60;
		// limit 1440;
		// file "639.csv";
	// };
	object complex_assert{
		target voltage_A;
		once ONCE_TRUE;
		in '2000-01-01 00:04:00 EST';
		value +268.009-9.92738j;
		within 1;
	};
	object complex_assert{
		target voltage_B;
		value -136.721-229.246j;
		within 1;
	};
	object complex_assert{
		target voltage_C;
		value -118.266+229.797j;
		within 1;
	};
}

object load:640 {
	name R4-12-47-1_load_20;
	parent R4-12-47-1_meter_20;
	phases BCN;
	voltage_B -3983.72-6900j;
	voltage_C -3983.72+6900j;
	constant_power_B 27669.3061+14917.6565j;
	constant_power_C 33839.6454+17278.7533j;
	nominal_voltage 7967.43;
	load_class C;
}

object load:641 {
	name R4-12-47-1_load_21;
	parent R4-12-47-1_meter_21;
	phases BCN;
	voltage_B -3983.72-6900j;
	voltage_C -3983.72+6900j;
	constant_power_B 0+0j;
	constant_power_C 2233.416603+1140.397731j;
	nominal_voltage 7967.43;
	load_class C;
}

object load:642 {
	name R4-12-47-1_load_22;
	parent R4-12-47-1_meter_22;
	phases BCN;
	voltage_B -3983.72-6900j;
	voltage_C -3983.72+6900j;
	constant_power_B 9223.102+4972.5522j;
	constant_power_C 11279.8818+5759.5844j;
	nominal_voltage 7967.43;
	load_class C;
}

object load:643 {
	name R4-12-47-1_load_23;
	parent R4-12-47-1_meter_23;
	phases CN;
	voltage_C -3983.72+6900j;
	constant_power_C 9587.89953+4895.64674j;
	nominal_voltage 7967.43;
	load_class C;
}

object load:644 {
	name R4-12-47-1_load_24;
	parent R4-12-47-1_meter_24;
	phases CN;
	voltage_C -3983.72+6900j;
	constant_power_C 751.2401412+383.5883277j;
	nominal_voltage 7967.43;
	load_class C;
}

object load:645 {
	name R4-12-47-1_load_25;
	parent R4-12-47-1_meter_25;
	phases CN;
	voltage_C -3983.72+6900j;
	constant_power_C 4511.9527+2303.8338j;
	nominal_voltage 7967.43;
	load_class C;
}

object load:646 {
	name R4-12-47-1_load_26;
	parent R4-12-47-1_meter_26;
	phases BCN;
	voltage_B -3983.72-6900j;
	voltage_C -3983.72+6900j;
	constant_power_B 18446.2041+9945.1043j;
	constant_power_C 11279.8818+5759.5844j;
	nominal_voltage 7967.43;
	load_class C;
}

object load:647 {
	name R4-12-47-1_load_27;
	parent R4-12-47-1_meter_27;
	phases BN;
	voltage_B -3983.72-6900j;
	constant_power_B 3689.2408+1989.0209j;
	nominal_voltage 7967.43;
	load_class C;
}

object load:648 {
	name R4-12-47-1_load_28;
	parent R4-12-47-1_meter_28;
	phases ABCN;
	voltage_A 7967.43+0.0j;
	voltage_B -3983.72-6900j;
	voltage_C -3983.72+6900j;
	constant_power_A 11108.1724+5787.4574j;
	constant_power_B 0+0j;
	constant_power_C 11279.8818+5759.5844j;
	nominal_voltage 7967.43;
	load_class C;
}

object load:649 {
	name R4-12-47-1_load_29;
	parent R4-12-47-1_meter_29;
	phases ACN;
	voltage_A 7967.43+0.0j;
	voltage_C -3983.72+6900j;
	constant_power_A 11108.1724+5787.4574j;
	constant_power_C 11279.8818+5759.5844j;
	nominal_voltage 7967.43;
	load_class C;
}

object load:650 {
	name R4-12-47-1_load_30;
	parent R4-12-47-1_meter_30;
	phases AN;
	voltage_A 7967.43+0.0j;
	constant_power_A 3699.0214092+1927.2233142j;
	nominal_voltage 7967.43;
	load_class C;
}

object load:651 {
	name R4-12-47-1_load_31;
	parent R4-12-47-1_meter_31;
	phases ABCN;
	voltage_A 7967.43+0.0j;
	voltage_B -3983.72-6900j;
	voltage_C -3983.72+6900j;
	constant_power_A 6220.576544+3240.976144j;
	constant_power_B 2065.974848+1113.851704j;
	constant_power_C 0+0j;
	nominal_voltage 7967.43;
	load_class C;
}

object load:652 {
	name R4-12-47-1_load_32;
	parent R4-12-47-1_meter_32;
	phases CN;
	voltage_C -3983.72+6900j;
	constant_power_C 1353.58582+691.15014j;
	nominal_voltage 7967.43;
	load_class C;
}

object load:653 {
	name R4-12-47-1_load_33;
	parent R4-12-47-1_meter_33;
	phases CN;
	voltage_C -3983.72+6900j;
	constant_power_C 2707.171632+1382.300268j;
	nominal_voltage 7967.43;
	load_class C;
}

object load:654 {
	name R4-12-47-1_load_34;
	parent R4-12-47-1_meter_34;
	phases ACN;
	voltage_A 7967.43+0.0j;
	voltage_C -3983.72+6900j;
	constant_power_A 14440.624185+7523.69462j;
	constant_power_C 2932.769255+1497.49197j;