 // $Id: R5-12.47-3.glm
 // 13.8 kV feeder
 //*********************************************
 // validates voltages with NR at selected load, node, meter, triplex_node, and
// triplex_meter objects
//
//
// uses newer taxonomy feeders (shunt impedance has been added to
// transformers)
//
// written by alek332

clock{
	timezone EST+8EDT;
	timestamp '2000-01-01 0:00:00';
	stoptime '2000-01-01 1:00:00';
}

 //#set profiler=1;
 //*********************************************
 // modules
 
 module assert;
 module tape;
 module powerflow{
      solver_method NR;
      default_maximum_voltage_error 1e-6;
 };

 //*********************************************
 object regulator:9656 {
      name R5-12-47-3_reg_1;
      from R5-12-47-3_node_1469;
      to R5-12-47-3_meter_183;
      phases ABCN;
      configuration regulator_configuration:9657;
      // object recorder {
           // property tap_A,tap_B,tap_C,power_in_A.real,power_in_A.imag,power_in_B.real,power_in_B.imag,power_in_C.real,power_in_C.imag,power_in.real,power_in.imag;
           // limit 1440;
           // interval 60;
           // file "R5-12.27-3_reg_output.csv";
      // };
 }

 object regulator_configuration:9657 {
      name feeder_reg_cfg;
      Control OUTPUT_VOLTAGE;
      band_center 7970;
      band_width 132;
      connect_type WYE_WYE;
      time_delay 30;
      raise_taps 16;
      lower_taps 16;
      regulation 0.10;
      tap_pos_A 0;
      tap_pos_B 0;
      tap_pos_C 0;
 }

 object capacitor:9650 {
      name R5-12-47-3_cap_1;
      phases ABCN;
      pt_phase B;
      parent R5-12-47-3_node_124;
      phases_connected ABC;
      control VOLT;
      voltage_set_high 7300;
      voltage_set_low 7075;
      capacitor_A 0.2 MVAr;
      capacitor_B 0.2 MVAr;
      capacitor_C 0.2 MVAr;
      control_level INDIVIDUAL;
      time_delay 30.0;
      dwell_time 30.0;
      cap_nominal_voltage 7970;
      nominal_voltage 7967.43;
      // object recorder {
           // property "switchA,switchB,switchC,voltage_A.real,voltage_A.imag,voltage_B.real,voltage_B.imag,voltage_C.real,voltage_C.imag";
           // file R5-12.47-3_capacitor1.csv;
           // interval 60;
           // limit 1440;
      // };
 }

 object capacitor:9651 {
      name R5-12-47-3_cap_2;
      phases CN;
      pt_phase C;
      parent R5-12-47-3_node_125;
      phases_connected C;
      control VOLT;
      voltage_set_high 7300;
      voltage_set_low 7050;
      capacitor_C 0.05 MVAr;
      control_level INDIVIDUAL;
      time_delay 30.0;
      dwell_time 30.0;
      cap_nominal_voltage 7970;
      nominal_voltage 7967.43;
      // object recorder {
           // property "switchC,voltage_C.real,voltage_C.imag";
           // file R5-12.47-3_capacitor2.csv;
           // interval 60;
           // limit 1440;
      // };
 }

 object capacitor:9652 {
      name R5-12-47-3_cap_3;
      phases ABCN;
      pt_phase B;
      parent R5-12-47-3_node_126;
      phases_connected ABC;
      control VOLT;
      voltage_set_high 7300;
      voltage_set_low 7025;
      capacitor_A 0.2 MVAr;
      capacitor_B 0.2 MVAr;
      capacitor_C 0.2 MVAr;
      control_level INDIVIDUAL;
      time_delay 30.0;
      dwell_time 30.0;
      cap_nominal_voltage 7970;
      nominal_voltage 7967.43;
      // object recorder {
           // property "switchA,switchB,switchC,voltage_A.real,voltage_A.imag,voltage_B.real,voltage_B.imag,voltage_C.real,voltage_C.imag";
           // file R5-12.47-3_capacitor3.csv;
           // interval 60;
           // limit 1440;
      // };
 }

 object capacitor:9653 {
      name R5-12-47-3_cap_4;
      phases ABCN;
      pt_phase B;
      parent R5-12-47-3_node_127;
      phases_connected ABC;
      control VOLT;
      voltage_set_high 7300;
      voltage_set_low 7050;
      capacitor_A 0.2 MVAr;
      capacitor_B 0.2 MVAr;
      capacitor_C 0.2 MVAr;
      control_level INDIVIDUAL;
      time_delay 30.0;
      dwell_time 30.0;
      cap_nominal_voltage 7970;
      nominal_voltage 7967.43;
      // object recorder {
           // property "switchA,switchB,switchC,voltage_A.real,voltage_A.imag,voltage_B.real,voltage_B.imag,voltage_C.real,voltage_C.imag";
           // file R5-12.47-3_capacitor4.csv;
           // interval 60;
           // limit 1440;
      // };
 }

 object capacitor:9654 {
      name R5-12-47-3_cap_5;
      phases CN;
      pt_phase C;
      parent R5-12-47-3_node_384;
      phases_connected C;
      control VOLT;
      voltage_set_high 7300;
      voltage_set_low 7000;
      capacitor_C 0.05 MVAr;
      control_level INDIVIDUAL;
      time_delay 30.0;
      dwell_time 30.0;
      cap_nominal_voltage 7970;
      nominal_voltage 7967.43;
      object recorder {
           property "switchC,voltage_C.real,voltage_C.imag";
           file R5-12.47-3_capacitor5.csv;
           interval 60;
           limit 144;
      };
 }

 object fuse:9438 {
      name R5-12-47-3_fuse_1;
      phases AN;
      from R5-12-47-3_node_688;
      to R5-12-47-3_node_11;
      mean_replacement_time 2;
      current_limit 50;
      status CLOSED;
 }

 object fuse:9439 {
      name R5-12-47-3_fuse_2;
      phases CN;
      from R5-12-47-3_node_528;
      to R5-12-47-3_node_37;
      mean_replacement_time 2;
      current_limit 30;
      status CLOSED;
 }

 object fuse:9440 {
      name R5-12-47-3_fuse_3;
      phases CN;
      from R5-12-47-3_node_1178;
      to R5-12-47-3_node_40;
      mean_replacement_time 2;
      current_limit 50;
      status CLOSED;
 }

 object fuse:9441 {
      name R5-12-47-3_fuse_4;
      phases CN;
      from R5-12-47-3_node_1160;
      to R5-12-47-3_node_64;
      mean_replacement_time 2;
      current_limit 50;
      status CLOSED;
 }

 object fuse:9442 {
      name R5-12-47-3_fuse_5;
      phases CN;
      from R5-12-47-3_node_1209;
      to R5-12-47-3_node_67;
      mean_replacement_time 2;
      current_limit 30;
      status CLOSED;
 }

 object fuse:9443 {
      name R5-12-47-3_fuse_6;
      phases CN;
      from R5-12-47-3_node_158;
      to R5-12-47-3_node_69;
      mean_replacement_time 2;
      current_limit 30;
      status CLOSED;
 }

 object fuse:9444 {
      name R5-12-47-3_fuse_7;
      phases CN;
      from R5-12-47-3_node_747;
      to R5-12-47-3_node_80;
      mean_replacement_time 2;
      current_limit 50;
      status CLOSED;
 }

 object fuse:9445 {
      name R5-12-47-3_fuse_8;
      phases BN;
      from R5-12-47-3_node_208;
      to R5-12-47-3_node_84;
      mean_replacement_time 2;
      current_limit 20;
      status CLOSED;
 }

 object fuse:9446 {
      name R5-12-47-3_fuse_9;
      phases AN;
      from R5-12-47-3_node_667;
      to R5-12-47-3_node_102;
      mean_replacement_time 2;
      current_limit 50;
      status CLOSED;
 }

 object fuse:9447 {
      name R5-12-47-3_fuse_10;
      phases ABCN;
      from R5-12-47-3_node_803;
      to R5-12-47-3_node_103;
      mean_replacement_time 2;
      current_limit 50;
      status CLOSED;
 }

 object fuse:9448 {
      name R5-12-47-3_fuse_11;
      phases AN;
      from R5-12-47-3_node_922;
      to R5-12-47-3_node_104;
      mean_replacement_time 2;
      current_limit 50;
      status CLOSED;
 }

 object fuse:9449 {
      name R5-12-47-3_fuse_12;
      phases CN;
      from R5-12-47-3_node_981;
      to R5-12-47-3_node_105;
      mean_replacement_time 2;
      current_limit 50;
      status CLOSED;
 }

 object fuse:9450 {
      name R5-12-47-3_fuse_13;
      phases BN;
      from R5-12-47-3_node_1009;
      to R5-12-47-3_node_106;
      mean_replacement_time 2;
      current_limit 50;
      status CLOSED;
 }

 object fuse:9451 {
      name R5-12-47-3_fuse_14;
      phases AN;
      from R5-12-47-3_node_852;
      to R5-12-47-3_node_107;
      mean_replacement_time 2;
      current_limit 50;
      status CLOSED;
 }

 object fuse:9452 {
      name R5-12-47-3_fuse_15;
      phases CN;
      from R5-12-47-3_node_939;
      to R5-12-47-3_node_108;
      mean_replacement_time 2;
      current_limit 50;
      status CLOSED;
 }

 object fuse:9453 {
      name R5-12-47-3_fuse_16;
      phases BN;
      from R5-12-47-3_node_1081;
      to R5-12-47-3_node_109;
      mean_replacement_time 2;
      current_limit 50;
      status CLOSED;
 }

 object fuse:9454 {
      name R5-12-47-3_fuse_17;
      phases BN;
      from R5-12-47-3_node_1105;
      to R5-12-47-3_node_110;
      mean_replacement_time 2;
      current_limit 15;
      status CLOSED;
 }

 object fuse:9455 {
      name R5-12-47-3_fuse_18;
      phases CN;
      from R5-12-47-3_node_1133;
      to R5-12-47-3_node_111;
      mean_replacement_time 2;
      current_limit 50;
      status CLOSED;
 }

 object fuse:9456 {
      name R5-12-47-3_fuse_19;
      phases CN;
      from R5-12-47-3_node_1144;
      to R5-12-47-3_node_112;
      mean_replacement_time 2;
      current_limit 50;
      status CLOSED;
 }

 object fuse:9457 {
      name R5-12-47-3_fuse_20;
      phases BN;
      from R5-12-47-3_node_1091;
      to R5-12-47-3_node_113;
      mean_replacement_time 2;
      current_limit 50;
      status CLOSED;
 }

 object fuse:9458 {
      name R5-12-47-3_fuse_21;
      phases BN;
      from R5-12-47-3_node_1155;
      to R5-12-47-3_node_114;
      mean_replacement_time 2;
      current_limit 50;
      status CLOSED;
 }

 object fuse:9459 {
      name R5-12-47-3_fuse_22;
      phases AN;
      from R5-12-47-3_node_1197;
      to R5-12-47-3_node_116;
      mean_replacement_time 2;
      current_limit 50;
      status CLOSED;
 }

 object fuse:9460 {
      name R5-12-47-3_fuse_23;
      phases AN;
      from R5-12-47-3_node_1225;
      to R5-12-47-3_node_117;
      mean_replacement_time 2;
      current_limit 50;
      status CLOSED;
 }

 object fuse:9461 {
      name R5-12-47-3_fuse_24;
      phases AN;
      from R5-12-47-3_node_1227;
      to R5-12-47-3_node_118;
      mean_replacement_time 2;
      current_limit 20;
      status CLOSED;
 }

 object fuse:9462 {
      name R5-12-47-3_fuse_25;
      phases AN;
      from R5-12-47-3_node_539;
      to R5-12-47-3_node_119;
      mean_replacement_time 2;
      current_limit 30;
      status CLOSED;
 }

 object fuse:9463 {
      name R5-12-47-3_fuse_26;
      phases CN;
      from R5-12-47-3_node_1235;
      to R5-12-47-3_node_120;
      mean_replacement_time 2;
      current_limit 50;
      status CLOSED;
 }

 object fuse:9464 {
      name R5-12-47-3_fuse_27;
      phases CN;
      from R5-12-47-3_node_1236;
      to R5-12-47-3_node_121;
      mean_replacement_time 2;
      current_limit 30;
      status CLOSED;
 }

 object fuse:9465 {
      name R5-12-47-3_fuse_28;
      phases BN;
      from R5-12-47-3_node_1252;
      to R5-12-47-3_node_122;
      mean_replacement_time 2;
      current_limit 50;
      status CLOSED;
 }

 object fuse:9466 {
      name R5-12-47-3_fuse_29;
      phases BN;
      from R5-12-47-3_node_1218;
      to R5-12-47-3_node_123;
      mean_replacement_time 2;
      current_limit 50;
      status CLOSED;
 }

 object fuse:9467 {
      name R5-12-47-3_fuse_30;
      phases CN;
      from R5-12-47-3_node_1153;
      to R5-12-47-3_node_134;
      mean_replacement_time 2;
      current_limit 50;
      status CLOSED;
 }

 object fuse:9468 {
      name R5-12-47-3_fuse_31;
      phases CN;
      from R5-12-47-3_node_141;
      to R5-12-47-3_node_140;
      mean_replacement_time 2;
      current_limit 20;
      status CLOSED;
 }

 object fuse:9469 {
      name R5-12-47-3_fuse_32;
      phases BN;
      from R5-12-47-3_node_144;
      to R5-12-47-3_node_143;
      mean_replacement_time 2;
      current_limit 30;
      status CLOSED;
 }

 object fuse:9470 {
      name R5-12-47-3_fuse_33;
      phases CN;
      from R5-12-47-3_node_145;
      to R5-12-47-3_node_146;
      mean_replacement_time 2;
      current_limit 50;
      status CLOSED;
 }

 object fuse:9471 {
      name R5-12-47-3_fuse_34;
      phases CN;
      from R5-12-47-3_node_1216;
      to R5-12-47-3_node_150;
      mean_replacement_time 2;
      current_limit 50;
      status CLOSED;
 }

 object fuse:9472 {
      name R5-12-47-3_fuse_35;
      phases BN;
      from R5-12-47-3_node_155;
      to R5-12-47-3_node_156;
      mean_replacement_time 2;
      current_limit 30;
      status CLOSED;
 }

 object fuse:9473 {
      name R5-12-47-3_fuse_36;
      phases AN;
      from R5-12-47-3_node_159;
      to R5-12-47-3_node_160;
      mean_replacement_time 2;
      current_limit 50;
      status CLOSED;
 }

 object fuse:9474 {
      name R5-12-47-3_fuse_37;
      phases ABCN;
      from R5-12-47-3_node_161;
      to R5-12-47-3_node_162;
      mean_replacement_time 2;
      current_limit 50;
      status CLOSED;
 }

 object fuse:9475 {
      name R5-12-47-3_fuse_38;
      phases BN;
      from R5-12-47-3_node_165;
      to R5-12-47-3_node_163;
      mean_replacement_time 2;
      current_limit 50;
      status CLOSED;
 }

 object fuse:9476 {
      name R5-12-47-3_fuse_39;
      phases BN;
      from R5-12-47-3_node_164;
      to R5-12-47-3_node_166;
      mean_replacement_time 2;
      current_limit 50;
      status CLOSED;
 }

 object fuse:9477 {
      name R5-12-47-3_fuse_40;
      phases AN;
      from R5-12-47-3_node_172;
      to R5-12-47-3_node_173;
      mean_replacement_time 2;
      current_limit 50;
      status CLOSED;
 }

 object fuse:9478 {
      name R5-12-47-3_fuse_41;
      phases AN;
      from R5-12-47-3_node_927;
      to R5-12-47-3_node_174;
      mean_replacement_time 2;
      current_limit 50;
      status CLOSED;
 }

 object fuse:9479 {
      name R5-12-47-3_fuse_42;
      phases BN;
      from R5-12-47-3_node_169;
      to R5-12-47-3_node_178;
      mean_replacement_time 2;
      current_limit 30;
      status CLOSED;
 }

 object fuse:9480 {
      name R5-12-47-3_fuse_43;
      phases BN;
      from R5-12-47-3_node_183;
      to R5-12-47-3_node_181;
      mean_replacement_time 2;
      current_limit 30;
      status CLOSED;
 }

 object fuse:9481 {
      name R5-12-47-3_fuse_44;
      phases BN;
      from R5-12-47-3_node_1003;
      to R5-12-47-3_node_187;
      mean_replacement_time 2;
      current_limit 50;
      status CLOSED;
 }

 object fuse:9482 {
      name R5-12-47-3_fuse_45;
      phases BN;
      from R5-12-47-3_node_187;
      to R5-12-47-3_node_188;
      mean_replacement_time 2;
      current_limit 30;
      status CLOSED;
 }

 object fuse:9483 {
      name R5-12-47-3_fuse_46;
      phases CN;
      from R5-12-47-3_node_193;
      to R5-12-47-3_node_192;
      mean_replacement_time 2;
      current_limit 30;
      status CLOSED;
 }

 object fuse:9484 {
      name R5-12-47-3_fuse_47;
      phases CN;
      from R5-12-47-3_node_176;
      to R5-12-47-3_node_193;
      mean_replacement_time 2;
      current_limit 30;
      status CLOSED;
 }

 object fuse:9485 {
      name R5-12-47-3_fuse_48;
      phases BN;
      from R5-12-47-3_node_199;
      to R5-12-47-3_node_198;
      mean_replacement_time 2;
      current_limit 30;
      status CLOSED;
 }

 object fuse:9486 {
      name R5-12-47-3_fuse_49;
      phases BN;
      from R5-12-47-3_node_190;
      to R5-12-47-3_node_199;
      mean_replacement_time 2;
      current_limit 50;
      status CLOSED;
 }

 object fuse:9487 {
      name R5-12-47-3_fuse_50;
      phases BN;
      from R5-12-47-3_node_815;
      to R5-12-47-3_node_201;
      mean_replacement_time 2;
      current_limit 30;
      status CLOSED;
 }

 object fuse:9488 {
      name R5-12-47-3_fuse_51;
      phases BN;
      from R5-12-47-3_node_202;
      to R5-12-47-3_node_204;
      mean_replacement_time 2;
      current_limit 30;
      status CLOSED;
 }

 object fuse:9489 {
      name R5-12-47-3_fuse_52;
      phases AN;
      from R5-12-47-3_node_1113;
      to R5-12-47-3_node_210;
      mean_replacement_time 2;
      current_limit 50;
      status CLOSED;
 }

 object fuse:9490 {
      name R5-12-47-3_fuse_53;
      phases AN;
      from R5-12-47-3_node_222;
      to R5-12-47-3_node_221;
      mean_replacement_time 2;
      current_limit 30;
      status CLOSED;
 }

 object fuse:9491 {
      name R5-12-47-3_fuse_54;
      phases BN;
      from R5-12-47-3_node_490;
      to R5-12-47-3_node_229;
      mean_replacement_time 2;
      current_limit 50;
      status CLOSED;
 }

 object fuse:9492 {
      name R5-12-47-3_fuse_55;
      phases BN;
      from R5-12-47-3_node_506;
      to R5-12-47-3_node_233;
      mean_replacement_time 2;
      current_limit 50;
      status CLOSED;
 }

 object fuse:9493 {
      name R5-12-47-3_fuse_56;
      phases AN;
      from R5-12-47-3_node_240;
      to R5-12-47-3_node_239;
      mean_replacement_time 2;
      current_limit 30;
      status CLOSED;
 }

 object fuse:9494 {
      name R5-12-47-3_fuse_57;
      phases BN;
      from R5-12-47-3_node_206;
      to R5-12-47-3_node_243;
      mean_replacement_time 2;
      current_limit 20;
      status CLOSED;
 }

 object fuse:9495 {
      name R5-12-47-3_fuse_58;
      phases BN;
      from R5-12-47-3_node_246;
      to R5-12-47-3_node_244;
      mean_replacement_time 2;
      current_limit 30;
      status CLOSED;
 }

 object fuse:9496 {
      name R5-12-47-3_fuse_59;
      phases CN;
      from R5-12-47-3_node_871;
      to R5-12-47-3_node_255;
      mean_replacement_time 2;
      current_limit 50;
      status CLOSED;
 }

 object fuse:9497 {
      name R5-12-47-3_fuse_60;
      phases BN;
      from R5-12-47-3_node_219;
      to R5-12-47-3_node_258;
      mean_replacement_time 2;
      current_limit 50;
      status CLOSED;
 }

 object fuse:9498 {
      name R5-12-47-3_fuse_61;
      phases BN;
      from R5-12-47-3_node_263;
      to R5-12-47-3_node_273;
      mean_replacement_time 2;
      current_limit 50;
      status CLOSED;
 }

 object fuse:9499 {
      name R5-12-47-3_fuse_62;
      phases BN;
      from R5-12-47-3_node_271;
      to R5-12-47-3_node_275;
      mean_replacement_time 2;
      current_limit 50;
      status CLOSED;
 }

 object fuse:9500 {
      name R5-12-47-3_fuse_63;
      phases BN;
      from R5-12-47-3_node_285;
      to R5-12-47-3_node_286;
      mean_replacement_time 2;
      current_limit 50;
      status CLOSED;
 }

 object fuse:9501 {
      name R5-12-47-3_fuse_64;
      phases CN;
      from R5-12-47-3_node_292;
      to R5-12-47-3_node_293;
      mean_replacement_time 2;
      current_limit 50;
      status CLOSED;
 }

 object fuse:9502 {
      name R5-12-47-3_fuse_65;
      phases BN;
      from R5-12-47-3_node_296;
      to R5-12-47-3_node_297;
      mean_replacement_time 2;
      current_limit 50;
      status CLOSED;
 }

 object fuse:9503 {
      name R5-12-47-3_fuse_66;
      phases AN;
      from R5-12-47-3_node_302;
      to R5-12-47-3_node_306;
      mean_replacement_time 2;
      current_limit 50;
      status CLOSED;
 }

 object fuse:9504 {
      name R5-12-47-3_fuse_67;
      phases CN;
      from R5-12-47-3_node_308;
      to R5-12-47-3_node_309;
      mean_replacement_time 2;
      current_limit 50;
      status CLOSED;
 }

 object fuse:9505 {
      name R5-12-47-3_fuse_68;
      phases CN;
      from R5-12-47-3_node_315;
      to R5-12-47-3_node_312;
      mean_replacement_time 2;
      current_limit 50;
      status CLOSED;
 }

 object fuse:9506 {
      name R5-12-47-3_fuse_69;
      phases BN;
      from R5-12-47-3_node_325;
      to R5-12-47-3_node_322;
      mean_replacement_time 2;
      current_limit 100;
      status CLOSED;
 }

 object fuse:9507 {
      name R5-12-47-3_fuse_70;
      phases AN;
      from R5-12-47-3_node_331;
      to R5-12-47-3_node_329;
      mean_replacement_time 2;
      current_limit 50;
      status CLOSED;
 }

 object fuse:9508 {
      name R5-12-47-3_fuse_71;
      phases BN;
      from R5-12-47-3_node_335;
      to R5-12-47-3_node_332;
      mean_replacement_time 2;
      current_limit 50;
      status CLOSED;
 }

 object fuse:9509 {
      name R5-12-47-3_fuse_72;
      phases AN;
      from R5-12-47-3_node_340;
      to R5-12-47-3_node_341;
      mean_replacement_time 2;
      current_limit 30;
      status CLOSED;
 }

 object fuse:9510 {
      name R5-12-47-3_fuse_73;
      phases CN;
      from R5-12-47-3_node_304;
      to R5-12-47-3_node_352;
      mean_replacement_time 2;
      current_limit 50;
      status CLOSED;
 }

 object fuse:9511 {
      name R5-12-47-3_fuse_74;
      phases CN;
      from R5-12-47-3_node_364;
      to R5-12-47-3_node_365;
      mean_replacement_time 2;
      current_limit 30;
      status CLOSED;
 }

 object fuse:9512 {
      name R5-12-47-3_fuse_75;
      phases BN;
      from R5-12-47-3_node_370;
      to R5-12-47-3_node_371;
      mean_replacement_time 2;
      current_limit 50;
      status CLOSED;
 }

 object fuse:9513 {
      name R5-12-47-3_fuse_76;
      phases AN;
      from R5-12-47-3_node_248;
      to R5-12-47-3_node_373;
      mean_replacement_time 2;
      current_limit 30;
      status CLOSED;
 }

 object fuse:9514 {
      name R5-12-47-3_fuse_77;
      phases CN;
      from R5-12-47-3_node_385;
      to R5-12-47-3_node_388;
      mean_replacement_time 2;
      current_limit 50;
      status CLOSED;
 }

 object fuse:9515 {
      name R5-12-47-3_fuse_78;
      phases AN;
      from R5-12-47-3_node_406;
      to R5-12-47-3_node_407;
      mean_replacement_time 2;
      current_limit 50;
      status CLOSED;
 }

 object fuse:9516 {
      name R5-12-47-3_fuse_79;
      phases AN;
      from R5-12-47-3_node_408;
      to R5-12-47-3_node_409;
      mean_replacement_time 2;
      current_limit 50;
      status CLOSED;
 }

 object fuse:9517 {
      name R5-12-47-3_fuse_80;
      phases CN;
      from R5-12-47-3_node_418;
      to R5-12-47-3_node_419;
      mean_replacement_time 2;
      current_limit 50;
      status CLOSED;
 }

 object fuse:9518 {
      name R5-12-47-3_fuse_81;
      phases CN;
      from R5-12-47-3_node_439;
      to R5-12-47-3_node_437;
      mean_replacement_time 2;
      current_limit 50;
      status CLOSED;
 }

 object fuse:9519 {
      name R5-12-47-3_fuse_82;
      phases CN;
      from R5-12-47-3_node_503;
      to R5-12-47-3_node_504;
      mean_replacement_time 2;
      current_limit 50;
      status CLOSED;
 }

 object fuse:9520 {
      name R5-12-47-3_fuse_83;
      phases AN;
      from R5-12-47-3_node_509;
      to R5-12-47-3_node_510;
      mean_replacement_time 2;
      current_limit 50;
      status CLOSED;
 }

 object fuse:9521 {
      name R5-12-47-3_fuse_84;
      phases CN;
      from R5-12-47-3_node_508;
      to R5-12-47-3_node_533;
      mean_replacement_time 2;
      current_limit 50;
      status CLOSED;
 }

 object fuse:9522 {
      name R5-12-47-3_fuse_85;
      phases AN;
      from R5-12-47-3_node_523;
      to R5-12-47-3_node_535;
      mean_replacement_time 2;
      current_limit 50;
      status CLOSED;
 }

 object fuse:9523 {
      name R5-12-47-3_fuse_86;
      phases BN;
      from R5-12-47-3_node_586;
      to R5-12-47-3_node_540;
      mean_replacement_time 2;
      current_limit 30;
      status CLOSED;
 }

 object fuse:9524 {
      name R5-12-47-3_fuse_87;
      phases AN;
      from R5-12-47-3_node_545;
      to R5-12-47-3_node_544;
      mean_replacement_time 2;
      current_limit 50;
      status CLOSED;
 }

 object fuse:9525 {
      name R5-12-47-3_fuse_88;
      phases BN;
      from R5-12-47-3_node_573;
      to R5-12-47-3_node_574;
      mean_replacement_time 2;
      current_limit 30;
      status CLOSED;
 }

 object fuse:9526 {
      name R5-12-47-3_fuse_89;
      phases BN;
      from R5-12-47-3_node_1196;
      to R5-12-47-3_node_581;
      mean_replacement_time 2;
      current_limit 50;
      status CLOSED;
 }

 object fuse:9527 {
      name R5-12-47-3_fuse_90;
      phases AN;
      from R5-12-47-3_node_592;
      to R5-12-47-3_node_598;
      mean_replacement_time 2;
      current_limit 50;
      status CLOSED;
 }

 object fuse:9528 {
      name R5-12-47-3_fuse_91;
      phases AN;
      from R5-12-47-3_node_642;
      to R5-12-47-3_node_639;
      mean_replacement_time 2;
      current_limit 50;
      status CLOSED;
 }

 object fuse:9529 {
      name R5-12-47-3_fuse_92;
      phases BN;
      from R5-12-47-3_node_652;
      to R5-12-47-3_node_650;
      mean_replacement_time 2;
      current_limit 50;
      status CLOSED;
 }

 object fuse:9530 {
      name R5-12-47-3_fuse_93;
      phases BN;
      from R5-12-47-3_node_658;
      to R5-12-47-3_node_656;
      mean_replacement_time 2;
      current_limit 50;
      status CLOSED;
 }

 object fuse:9531 {
      name R5-12-47-3_fuse_94;
      phases AN;
      from R5-12-47-3_node_1065;
      to R5-12-47-3_node_661;
      mean_replacement_time 2;
      current_limit 20;
      status CLOSED;
 }

 object fuse:9532 {
      name R5-12-47-3_fuse_95;
      phases AN;
      from R5-12-47-3_node_694;
      to R5-12-47-3_node_667;
      mean_replacement_time 2;
      current_limit 50;
      status CLOSED;
 }

 object fuse:9533 {
      name R5-12-47-3_fuse_96;
      phases CN;
      from R5-12-47-3_node_704;
      to R5-12-47-3_node_705;
      mean_replacement_time 2;
      current_limit 20;
      status CLOSED;
 }

 object fuse:9534 {
      name R5-12-47-3_fuse_97;
      phases CN;
      from R5-12-47-3_node_1101;
      to R5-12-47-3_node_716;
      mean_replacement_time 2;
      current_limit 50;
      status CLOSED;
 }

 object fuse:9535 {
      name R5-12-47-3_fuse_98;
      phases CN;
      from R5-12-47-3_node_723;
      to R5-12-47-3_node_724;
      mean_replacement_time 2;
      current_limit 30;
      status CLOSED;
 }

 object fuse:9536 {
      name R5-12-47-3_fuse_99;
      phases BN;
      from R5-12-47-3_node_740;
      to R5-12-47-3_node_737;
      mean_replacement_time 2;
      current_limit 50;
      status CLOSED;
 }

 object fuse:9537 {
      name R5-12-47-3_fuse_100;
      phases AN;
      from R5-12-47-3_node_746;
      to R5-12-47-3_node_743;
      mean_replacement_time 2;
      current_limit 50;
      status CLOSED;
 }

 object fuse:9538 {
      name R5-12-47-3_fuse_101;
      phases AN;
      from R5-12-47-3_node_750;
      to R5-12-47-3_node_751;
      mean_replacement_time 2;
      current_limit 50;
      status CLOSED;
 }

 object fuse:9539 {
      name R5-12-47-3_fuse_102;
      phases CN;
      from R5-12-47-3_node_767;
      to R5-12-47-3_node_765;
      mean_replacement_time 2;
      current_limit 50;
      status CLOSED;
 }

 object fuse:9540 {
      name R5-12-47-3_fuse_103;
      phases AN;
      from R5-12-47-3_node_777;
      to R5-12-47-3_node_778;
      mean_replacement_time 2;
      current_limit 30;
      status CLOSED;
 }

 object fuse:9541 {
      name R5-12-47-3_fuse_104;
      phases CN;
      from R5-12-47-3_node_784;
      to R5-12-47-3_node_783;
      mean_replacement_time 2;
      current_limit 50;
      status CLOSED;
 }

 object fuse:9542 {
      name R5-12-47-3_fuse_105;
      phases CN;
      from R5-12-47-3_node_786;
      to R5-12-47-3_node_785;
      mean_replacement_time 2;
      current_limit 50;
      status CLOSED;
 }

 object fuse:9543 {
      name R5-12-47-3_fuse_106;
      phases AN;
      from R5-12-47-3_node_788;
      to R5-12-47-3_node_787;
      mean_replacement_time 2;
      current_limit 50;
      status CLOSED;
 }

 object fuse:9544 {
      name R5-12-47-3_fuse_107;
      phases CN;
      from R5-12-47-3_node_250;
      to R5-12-47-3_node_804;
      mean_replacement_time 2;
      current_limit 30;
      status CLOSED;
 }

 object fuse:9545 {
      name R5-12-47-3_fuse_108;
      phases CN;
      from R5-12-47-3_node_807;
      to R5-12-47-3_node_809;
      mean_replacement_time 2;
      current_limit 50;
      status CLOSED;
 }

 object fuse:9546 {
      name R5-12-47-3_fuse_109;
      phases CN;
      from R5-12-47-3_node_776;
      to R5-12-47-3_node_811;
      mean_replacement_time 2;
      current_limit 50;
      status CLOSED;
 }

 object fuse:9547 {
      name R5-12-47-3_fuse_110;
      phases CN;
      from R5-12-47-3_node_912;
      to R5-12-47-3_node_849;
      mean_replacement_time 2;
      current_limit 50;
      status CLOSED;
 }

 object fuse:9548 {
      name R5-12-47-3_fuse_111;
      phases AN;
      from R5-12-47-3_node_856;
      to R5-12-47-3_node_857;
      mean_replacement_time 2;
      current_limit 50;
      status CLOSED;
 }

 object fuse:9549 {
      name R5-12-47-3_fuse_112;
      phases AN;
      from R5-12-47-3_node_843;
      to R5-12-47-3_node_859;
      mean_replacement_time 2;
      current_limit 50;
      status CLOSED;
 }

 object fuse:9550 {
      name R5-12-47-3_fuse_113;
      phases CN;
      from R5-12-47-3_node_865;
      to R5-12-47-3_node_867;
      mean_replacement_time 2;
      current_limit 50;
      status CLOSED;
 }

 object fuse:9551 {
      name R5-12-47-3_fuse_114;
      phases BN;
      from R5-12-47-3_node_903;
      to R5-12-47-3_node_884;
      mean_replacement_time 2;
      current_limit 50;
      status CLOSED;
 }

 object fuse:9552 {
      name R5-12-47-3_fuse_115;
      phases BN;
      from R5-12-47-3_node_888;
      to R5-12-47-3_node_890;
      mean_replacement_time 2;
      current_limit 50;
      status CLOSED;
 }

 object fuse:9553 {
      name R5-12-47-3_fuse_116;
      phases AN;
      from R5-12-47-3_node_916;
      to R5-12-47-3_node_911;
      mean_replacement_time 2;
      current_limit 50;
      status CLOSED;
 }

 object fuse:9554 {
      name R5-12-47-3_fuse_117;
      phases AN;
      from R5-12-47-3_node_920;
      to R5-12-47-3_node_917;
      mean_replacement_time 2;
      current_limit 50;
      status CLOSED;
 }

 object fuse:9555 {
      name R5-12-47-3_fuse_118;
      phases CN;
      from R5-12-47-3_node_924;
      to R5-12-47-3_node_925;
      mean_replacement_time 2;
      current_limit 50;
      status CLOSED;
 }

 object fuse:9556 {
      name R5-12-47-3_fuse_119;
      phases CN;
      from R5-12-47-3_node_937;
      to R5-12-47-3_node_938;
      mean_replacement_time 2;
      current_limit 50;
      status CLOSED;
 }

 object fuse:9557 {
      name R5-12-47-3_fuse_120;
      phases AN;
      from R5-12-47-3_node_941;