 // $Id: R5-12.47-5.glm
 // 12.47 kV feeder
 //*********************************************
  // validates FBS-solved voltages at selected load, node, meter, triplex_node, and
// triplex_meter objects
//
//
// uses newer taxonomy feeders (shunt impedance has been added to
// transformers)
//
// written by alek332

clock{
	timezone EST+8EDT;
	timestamp '2000-01-01 0:00:00';
	stoptime '2000-01-01 1:00:00';
}

 //#set profiler=1
 //*********************************************
 // modules
 module assert;
module tape; 
module powerflow{ 
     solver_method FBS; 
      default_maximum_voltage_error 1e-6;
}; 

//********************************************* 
object regulator:4177 { 
     name R5-12-47-5_reg_1; 
     from R5-12-47-5_node_1100; 
     to R5-12-47-5_meter_29; 
     phases ABCN; 
     configuration regulator_configuration:4178; 
     // object recorder { 
          // property tap_A,tap_B,tap_C,power_in_A.real,power_in_A.imag,power_in_B.real,power_in_B.imag,power_in_C.real,power_in_C.imag,power_in.real,power_in.imag; 
          // limit 1440; 
          // interval 60; 
          // file "R5-12.27-5_reg_output.csv"; 
     // }; 
} 

object regulator_configuration:4178 { 
     name feeder_reg_cfg; 
     Control OUTPUT_VOLTAGE; 
     band_center 7500.0; 
     band_width 60.0; 
     connect_type WYE_WYE; 
     time_delay 30; 
     raise_taps 16; 
     lower_taps 16; 
     regulation 0.10; 
     tap_pos_A 0; 
     tap_pos_B 0; 
     tap_pos_C 0; 
} 

object capacitor:4173 { 
     name R5-12-47-5_cap_1; 
     phases ABCN; 
     pt_phase B; 
     parent R5-12-47-5_node_20; 
     phases_connected ABC; 
     control VOLT; 
     voltage_set_high 7300; 
     voltage_set_low 7100; 
     capacitor_A 0.3 MVAr; 
     capacitor_B 0.3 MVAr; 
     capacitor_C 0.3 MVAr; 
     control_level INDIVIDUAL; 
     time_delay 30.0; 
     dwell_time 30.0; 
     cap_nominal_voltage 7200; 
     nominal_voltage 7200; 
     // object recorder { 
          // property "switchA,switchB,switchC,voltage_A.real,voltage_A.imag,voltage_B.real,voltage_B.imag,voltage_C.real,voltage_C.imag"; 
          // file R5-12.47-5_capacitor1.csv; 
          // interval 60; 
          // limit 1440; 
     // }; 
} 

object capacitor:4174 { 
     name R5-12-47-5_cap_2; 
     phases ABCN; 
     pt_phase B; 
     parent R5-12-47-5_node_479; 
     phases_connected ABC; 
     control VOLT; 
     voltage_set_high 7300; 
     voltage_set_low 7100; 
     capacitor_A 0.3 MVAr; 
     capacitor_B 0.3 MVAr; 
     capacitor_C 0.3 MVAr; 
     control_level INDIVIDUAL; 
     time_delay 30.0; 
     dwell_time 30.0; 
     cap_nominal_voltage 7200; 
     nominal_voltage 7200; 
     // object recorder { 
          // property "switchA,switchB,switchC,voltage_A.real,voltage_A.imag,voltage_B.real,voltage_B.imag,voltage_C.real,voltage_C.imag"; 
          // file R5-12.47-5_capacitor2.csv; 
          // interval 60; 
          // limit 1440; 
     // }; 
} 

object capacitor:4175 { 
     name R5-12-47-5_cap_3; 
     phases ABCN; 
     pt_phase B; 
     parent R5-12-47-5_node_623; 
     phases_connected ABC; 
     control VOLT; 
     voltage_set_high 7300; 
     voltage_set_low 7100; 
     capacitor_A 0.3 MVAr; 
     capacitor_B 0.3 MVAr; 
     capacitor_C 0.3 MVAr; 
     control_level INDIVIDUAL; 
     time_delay 30.0; 
     dwell_time 30.0; 
     cap_nominal_voltage 7200; 
     nominal_voltage 7200; 
     object recorder { 
          property "switchA,switchB,switchC,voltage_A.real,voltage_A.imag,voltage_B.real,voltage_B.imag,voltage_C.real,voltage_C.imag"; 
          file R5-12.47-5_capacitor3.csv; 
          interval 60; 
          limit 144; 
     }; 
} 

object fuse:3990 { 
     name R5-12-47-5_fuse_1; 
     phases CN; 
     from R5-12-47-5_node_166; 
     to R5-12-47-5_node_170; 
     current_limit 15; 
     status CLOSED; 
} 

object fuse:3991 { 
     name R5-12-47-5_fuse_2; 
     phases AN; 
     from R5-12-47-5_node_200; 
     to R5-12-47-5_node_211; 
     current_limit 30; 
     status CLOSED; 
} 

object fuse:3992 { 
     name R5-12-47-5_fuse_3; 
     phases AN; 
     from R5-12-47-5_node_201; 
     to R5-12-47-5_node_209; 
     current_limit 30; 
     status CLOSED; 
} 

object fuse:3993 { 
     name R5-12-47-5_fuse_4; 
     phases AN; 
     from R5-12-47-5_node_84; 
     to R5-12-47-5_node_87; 
     current_limit 30; 
     status CLOSED; 
} 

object fuse:3994 { 
     name R5-12-47-5_fuse_5; 
     phases AN; 
     from R5-12-47-5_node_193; 
     to R5-12-47-5_node_195; 
     current_limit 30; 
     status CLOSED; 
} 

object fuse:3995 { 
     name R5-12-47-5_fuse_6; 
     phases AN; 
     from R5-12-47-5_node_192; 
     to R5-12-47-5_node_188; 
     current_limit 50; 
     status CLOSED; 
} 

object fuse:3996 { 
     name R5-12-47-5_fuse_7; 
     phases AN; 
     from R5-12-47-5_node_74; 
     to R5-12-47-5_node_69; 
     current_limit 30; 
     status CLOSED; 
} 

object fuse:3997 { 
     name R5-12-47-5_fuse_8; 
     phases AN; 
     from R5-12-47-5_node_74; 
     to R5-12-47-5_node_78; 
     current_limit 30; 
     status CLOSED; 
} 

object fuse:3998 { 
     name R5-12-47-5_fuse_9; 
     phases CN; 
     from R5-12-47-5_node_561; 
     to R5-12-47-5_node_562; 
     current_limit 40; 
     status CLOSED; 
} 

object fuse:3999 { 
     name R5-12-47-5_fuse_10; 
     phases ABCN; 
     from R5-12-47-5_node_690; 
     to R5-12-47-5_node_692; 
     current_limit 8; 
     status CLOSED; 
} 

object fuse:4000 { 
     name R5-12-47-5_fuse_11; 
     phases AN; 
     from R5-12-47-5_node_496; 
     to R5-12-47-5_node_497; 
     current_limit 65; 
     status CLOSED; 
} 

object fuse:4001 { 
     name R5-12-47-5_fuse_12; 
     phases AN; 
     from R5-12-47-5_node_72; 
     to R5-12-47-5_node_68; 
     current_limit 30; 
     status CLOSED; 
} 

object fuse:4002 { 
     name R5-12-47-5_fuse_13; 
     phases BN; 
     from R5-12-47-5_node_393; 
     to R5-12-47-5_node_394; 
     current_limit 30; 
     status CLOSED; 
} 

object fuse:4003 { 
     name R5-12-47-5_fuse_14; 
     phases BN; 
     from R5-12-47-5_node_402; 
     to R5-12-47-5_node_404; 
     current_limit 30; 
     status CLOSED; 
} 

object fuse:4004 { 
     name R5-12-47-5_fuse_15; 
     phases AN; 
     from R5-12-47-5_node_502; 
     to R5-12-47-5_node_503; 
     current_limit 65; 
     status CLOSED; 
} 

object fuse:4005 { 
     name R5-12-47-5_fuse_16; 
     phases ABCN; 
     from R5-12-47-5_node_490; 
     to R5-12-47-5_node_495; 
     current_limit 140; 
     status CLOSED; 
} 

object fuse:4006 { 
     name R5-12-47-5_fuse_17; 
     phases BN; 
     from R5-12-47-5_node_248; 
     to R5-12-47-5_node_258; 
     current_limit 65; 
     status CLOSED; 
} 

object fuse:4007 { 
     name R5-12-47-5_fuse_18; 
     phases BN; 
     from R5-12-47-5_node_248; 
     to R5-12-47-5_node_242; 
     current_limit 65; 
     status CLOSED; 
} 

object fuse:4008 { 
     name R5-12-47-5_fuse_19; 
     phases AN; 
     from R5-12-47-5_node_250; 
     to R5-12-47-5_node_249; 
     current_limit 65; 
     status CLOSED; 
} 

object fuse:4009 { 
     name R5-12-47-5_fuse_20; 
     phases AN; 
     from R5-12-47-5_node_255; 
     to R5-12-47-5_node_254; 
     current_limit 65; 
     status CLOSED; 
} 

object fuse:4010 { 
     name R5-12-47-5_fuse_21; 
     phases BN; 
     from R5-12-47-5_node_134; 
     to R5-12-47-5_node_138; 
     current_limit 65; 
     status CLOSED; 
} 

object fuse:4011 { 
     name R5-12-47-5_fuse_22; 
     phases BN; 
     from R5-12-47-5_node_133; 
     to R5-12-47-5_node_137; 
     current_limit 65; 
     status CLOSED; 
} 

object fuse:4012 { 
     name R5-12-47-5_fuse_23; 
     phases CN; 
     from R5-12-47-5_node_130; 
     to R5-12-47-5_node_136; 
     current_limit 30; 
     status CLOSED; 
} 

object fuse:4013 { 
     name R5-12-47-5_fuse_24; 
     phases AN; 
     from R5-12-47-5_node_101; 
     to R5-12-47-5_node_99; 
     current_limit 65; 
     status CLOSED; 
} 

object fuse:4014 { 
     name R5-12-47-5_fuse_25; 
     phases AN; 
     from R5-12-47-5_node_101; 
     to R5-12-47-5_node_100; 
     current_limit 65; 
     status CLOSED; 
} 

object fuse:4015 { 
     name R5-12-47-5_fuse_26; 
     phases AN; 
     from R5-12-47-5_node_187; 
     to R5-12-47-5_node_184; 
     current_limit 30; 
     status CLOSED; 
} 

object fuse:4016 { 
     name R5-12-47-5_fuse_27; 
     phases ABCN; 
     from R5-12-47-5_node_959; 
     to R5-12-47-5_node_958; 
     current_limit 8; 
     status CLOSED; 
} 

object fuse:4017 { 
     name R5-12-47-5_fuse_28; 
     phases ABCN; 
     from R5-12-47-5_node_959; 
     to R5-12-47-5_node_960; 
     current_limit 140; 
     status CLOSED; 
} 

object fuse:4018 { 
     name R5-12-47-5_fuse_29; 
     phases ABCN; 
     from R5-12-47-5_node_862; 
     to R5-12-47-5_node_863; 
     current_limit 65; 
     status CLOSED; 
} 

object fuse:4019 { 
     name R5-12-47-5_fuse_30; 
     phases ABCN; 
     from R5-12-47-5_node_941; 
     to R5-12-47-5_node_940; 
     current_limit 65; 
     status CLOSED; 
} 

object fuse:4020 { 
     name R5-12-47-5_fuse_31; 
     phases ABCN; 
     from R5-12-47-5_node_934; 
     to R5-12-47-5_node_935; 
     current_limit 65; 
     status CLOSED; 
} 

object fuse:4021 { 
     name R5-12-47-5_fuse_32; 
     phases ABCN; 
     from R5-12-47-5_node_910; 
     to R5-12-47-5_node_911; 
     current_limit 140; 
     status CLOSED; 
} 

object fuse:4022 { 
     name R5-12-47-5_fuse_33; 
     phases BN; 
     from R5-12-47-5_node_670; 
     to R5-12-47-5_node_669; 
     current_limit 50; 
     status CLOSED; 
} 

object fuse:4023 { 
     name R5-12-47-5_fuse_34; 
     phases BN; 
     from R5-12-47-5_node_685; 
     to R5-12-47-5_node_686; 
     current_limit 8; 
     status CLOSED; 
} 

object fuse:4024 { 
     name R5-12-47-5_fuse_35; 
     phases ABCN; 
     from R5-12-47-5_node_879; 
     to R5-12-47-5_node_877; 
     current_limit 10; 
     status CLOSED; 
} 

object fuse:4025 { 
     name R5-12-47-5_fuse_36; 
     phases CN; 
     from R5-12-47-5_node_320; 
     to R5-12-47-5_node_321; 
     current_limit 50; 
     status CLOSED; 
} 

object fuse:4026 { 
     name R5-12-47-5_fuse_37; 
     phases CN; 
     from R5-12-47-5_node_481; 
     to R5-12-47-5_node_485; 
     current_limit 50; 
     status CLOSED; 
} 

object fuse:4027 { 
     name R5-12-47-5_fuse_38; 
     phases CN; 
     from R5-12-47-5_node_289; 
     to R5-12-47-5_node_288; 
     current_limit 50; 
     status CLOSED; 
} 

object fuse:4028 { 
     name R5-12-47-5_fuse_39; 
     phases CN; 
     from R5-12-47-5_node_335; 
     to R5-12-47-5_node_332; 
     current_limit 50; 
     status CLOSED; 
} 

object fuse:4029 { 
     name R5-12-47-5_fuse_40; 
     phases ABCN; 
     from R5-12-47-5_node_521; 
     to R5-12-47-5_node_335; 
     current_limit 50; 
     status CLOSED; 
} 

object fuse:4030 { 
     name R5-12-47-5_fuse_41; 
     phases AN; 
     from R5-12-47-5_node_335; 
     to R5-12-47-5_node_340; 
     current_limit 50; 
     status CLOSED; 
} 

object fuse:4031 { 
     name R5-12-47-5_fuse_42; 
     phases CN; 
     from R5-12-47-5_node_335; 
     to R5-12-47-5_node_339; 
     current_limit 50; 
     status CLOSED; 
} 

object fuse:4032 { 
     name R5-12-47-5_fuse_43; 
     phases CN; 
     from R5-12-47-5_node_168; 
     to R5-12-47-5_node_167; 
     current_limit 4; 
     status CLOSED; 
} 

object fuse:4033 { 
     name R5-12-47-5_fuse_44; 
     phases CN; 
     from R5-12-47-5_node_171; 
     to R5-12-47-5_node_172; 
     current_limit 8; 
     status CLOSED; 
} 

object fuse:4034 { 
     name R5-12-47-5_fuse_45; 
     phases CN; 
     from R5-12-47-5_node_1010; 
     to R5-12-47-5_node_1009; 
     current_limit 50; 
     status CLOSED; 
} 

object fuse:4035 { 
     name R5-12-47-5_fuse_46; 
     phases ABCN; 
     from R5-12-47-5_node_1004; 
     to R5-12-47-5_node_1005; 
     current_limit 65; 
     status CLOSED; 
} 

object fuse:4036 { 
     name R5-12-47-5_fuse_47; 
     phases CN; 
     from R5-12-47-5_node_551; 
     to R5-12-47-5_node_555; 
     current_limit 30; 
     status CLOSED; 
} 

object fuse:4037 { 
     name R5-12-47-5_fuse_48; 
     phases BN; 
     from R5-12-47-5_node_972; 
     to R5-12-47-5_node_973; 
     current_limit 50; 
     status CLOSED; 
} 

object fuse:4038 { 
     name R5-12-47-5_fuse_49; 
     phases AN; 
     from R5-12-47-5_node_972; 
     to R5-12-47-5_node_974; 
     current_limit 65; 
     status CLOSED; 
} 

object fuse:4039 { 
     name R5-12-47-5_fuse_50; 
     phases CN; 
     from R5-12-47-5_node_972; 
     to R5-12-47-5_node_970; 
     current_limit 65; 
     status CLOSED; 
} 

object fuse:4040 { 
     name R5-12-47-5_fuse_51; 
     phases BN; 
     from R5-12-47-5_node_965; 
     to R5-12-47-5_node_966; 
     current_limit 50; 
     status CLOSED; 
} 

object fuse:4041 { 
     name R5-12-47-5_fuse_52; 
     phases CN; 
     from R5-12-47-5_node_965; 
     to R5-12-47-5_node_969; 
     current_limit 65; 
     status CLOSED; 
} 

object fuse:4042 { 
     name R5-12-47-5_fuse_53; 
     phases AN; 
     from R5-12-47-5_node_965; 
     to R5-12-47-5_node_963; 
     current_limit 50; 
     status CLOSED; 
} 

object fuse:4043 { 
     name R5-12-47-5_fuse_54; 
     phases ABCN; 
     from R5-12-47-5_node_955; 
     to R5-12-47-5_node_956; 
     current_limit 10; 
     status CLOSED; 
} 

object fuse:4044 { 
     name R5-12-47-5_fuse_55; 
     phases BN; 
     from R5-12-47-5_node_950; 
     to R5-12-47-5_node_951; 
     current_limit 65; 
     status CLOSED; 
} 

object fuse:4045 { 
     name R5-12-47-5_fuse_56; 
     phases CN; 
     from R5-12-47-5_node_950; 
     to R5-12-47-5_node_953; 
     current_limit 65; 
     status CLOSED; 
} 

object fuse:4046 { 
     name R5-12-47-5_fuse_57; 
     phases AN; 
     from R5-12-47-5_node_950; 
     to R5-12-47-5_node_948; 
     current_limit 65; 
     status CLOSED; 
} 

object fuse:4047 { 
     name R5-12-47-5_fuse_58; 
     phases CN; 
     from R5-12-47-5_node_761; 
     to R5-12-47-5_node_757; 
     current_limit 5; 
     status CLOSED; 
} 

object fuse:4048 { 
     name R5-12-47-5_fuse_59; 
     phases BN; 
     from R5-12-47-5_node_761; 
     to R5-12-47-5_node_758; 
     current_limit 20; 
     status CLOSED; 
} 

object fuse:4049 { 
     name R5-12-47-5_fuse_60; 
     phases BN; 
     from R5-12-47-5_node_393; 
     to R5-12-47-5_node_391; 
     current_limit 65; 
     status CLOSED; 
} 

object fuse:4050 { 
     name R5-12-47-5_fuse_61; 
     phases AN; 
     from R5-12-47-5_node_761; 
     to R5-12-47-5_node_760; 
     current_limit 50; 
     status CLOSED; 
} 

object fuse:4051 { 
     name R5-12-47-5_fuse_62; 
     phases ABCN; 
     from R5-12-47-5_node_756; 
     to R5-12-47-5_node_755; 
     current_limit 5; 
     status CLOSED; 
} 

object fuse:4052 { 
     name R5-12-47-5_fuse_63; 
     phases AN; 
     from R5-12-47-5_node_752; 
     to R5-12-47-5_node_754; 
     current_limit 50; 
     status CLOSED; 
} 

object fuse:4053 { 
     name R5-12-47-5_fuse_64; 
     phases BN; 
     from R5-12-47-5_node_752; 
     to R5-12-47-5_node_753; 
     current_limit 50; 
     status CLOSED; 
} 

object fuse:4054 { 
     name R5-12-47-5_fuse_65; 
     phases CN; 
     from R5-12-47-5_node_752; 
     to R5-12-47-5_node_748; 
     current_limit 5; 
     status CLOSED; 
} 

object fuse:4055 { 
     name R5-12-47-5_fuse_66; 
     phases ABCN; 
     from R5-12-47-5_node_743; 
     to R5-12-47-5_node_742; 
     current_limit 7; 
     status CLOSED; 
} 

object fuse:4056 { 
     name R5-12-47-5_fuse_67; 
     phases CN; 
     from R5-12-47-5_node_730; 
     to R5-12-47-5_node_732; 
     current_limit 18; 
     status CLOSED; 
} 

object fuse:4057 { 
     name R5-12-47-5_fuse_68; 
     phases ABCN; 
     from R5-12-47-5_node_729; 
     to R5-12-47-5_node_728; 
     current_limit 12; 
     status CLOSED; 
} 

object fuse:4058 { 
     name R5-12-47-5_fuse_69; 
     phases ABCN; 
     from R5-12-47-5_node_724; 
     to R5-12-47-5_node_722; 
     current_limit 50; 
     status CLOSED; 
} 

object fuse:4059 { 
     name R5-12-47-5_fuse_70; 
     phases ABCN; 
     from R5-12-47-5_node_720; 
     to R5-12-47-5_node_719; 
     current_limit 65; 
     status CLOSED; 
} 

object fuse:4060 { 
     name R5-12-47-5_fuse_71; 
     phases AN; 
     from R5-12-47-5_node_526; 
     to R5-12-47-5_node_529; 
     current_limit 50; 
     status CLOSED; 
} 

object fuse:4061 { 
     name R5-12-47-5_fuse_72; 
     phases BN; 
     from R5-12-47-5_node_526; 
     to R5-12-47-5_node_528; 
     current_limit 65; 
     status CLOSED; 
} 

object fuse:4062 { 
     name R5-12-47-5_fuse_73; 
     phases CN; 
     from R5-12-47-5_node_526; 
     to R5-12-47-5_node_527; 
     current_limit 65; 
     status CLOSED; 
} 

object fuse:4063 { 
     name R5-12-47-5_fuse_74; 
     phases AN; 
     from R5-12-47-5_node_521; 
     to R5-12-47-5_node_522; 
     current_limit 65; 
     status CLOSED; 
} 

object fuse:4064 { 
     name R5-12-47-5_fuse_75; 
     phases BN; 
     from R5-12-47-5_node_521; 
     to R5-12-47-5_node_524; 
     current_limit 65; 
     status CLOSED; 
} 

object fuse:4065 { 
     name R5-12-47-5_fuse_76; 
     phases CN; 
     from R5-12-47-5_node_521; 
     to R5-12-47-5_node_525; 
     current_limit 65; 
     status CLOSED; 
} 

object fuse:4066 { 
     name R5-12-47-5_fuse_77; 
     phases ABCN; 
     from R5-12-47-5_node_908; 
     to R5-12-47-5_node_912; 
     current_limit 15; 
     status CLOSED; 
} 

object fuse:4067 { 
     name R5-12-47-5_fuse_78; 
     phases ABCN; 
     from R5-12-47-5_node_906; 
     to R5-12-47-5_node_904; 
     current_limit 18; 
     status CLOSED; 
} 

object fuse:4068 { 
     name R5-12-47-5_fuse_79; 
     phases BN; 
     from R5-12-47-5_node_896; 
     to R5-12-47-5_node_895; 
     current_limit 65; 
     status CLOSED; 
} 

object fuse:4069 { 
     name R5-12-47-5_fuse_80; 
     phases ABCN; 
     from R5-12-47-5_node_891; 
     to R5-12-47-5_node_890; 
     current_limit 50; 
     status CLOSED; 
} 

object fuse:4070 { 
     name R5-12-47-5_fuse_81; 
     phases AN; 
     from R5-12-47-5_node_870; 
     to R5-12-47-5_node_872; 
     current_limit 65; 
     status CLOSED; 
} 

object fuse:4071 { 
     name R5-12-47-5_fuse_82; 
     phases BN; 
     from R5-12-47-5_node_870; 
     to R5-12-47-5_node_871; 
     current_limit 65; 
     status CLOSED; 
} 

object fuse:4072 { 
     name R5-12-47-5_fuse_83; 
     phases CN; 
     from R5-12-47-5_node_870; 
     to R5-12-47-5_node_867; 
     current_limit 65; 
     status CLOSED; 
} 

object fuse:4073 { 
     name R5-12-47-5_fuse_84; 
     phases ABCN; 
     from R5-12-47-5_node_864; 
     to R5-12-47-5_node_865; 
     current_limit 65; 
     status CLOSED; 
} 

object fuse:4074 { 
     name R5-12-47-5_fuse_85; 
     phases ABCN; 
     from R5-12-47-5_node_859; 
     to R5-12-47-5_node_858; 
     current_limit 65; 
     status CLOSED; 
} 

object fuse:4075 { 
     name R5-12-47-5_fuse_86; 
     phases ABCN; 
     from R5-12-47-5_node_853; 
     to R5-12-47-5_node_855; 
     current_limit 65; 
     status CLOSED; 
} 

object fuse:4076 { 
     name R5-12-47-5_fuse_87; 
     phases AN; 
     from R5-12-47-5_node_990; 
     to R5-12-47-5_node_991; 
     current_limit 65; 
     status CLOSED; 
} 

object fuse:4077 { 
     name R5-12-47-5_fuse_88; 
     phases AN; 
     from R5-12-47-5_node_995; 
     to R5-12-47-5_node_994; 
     current_limit 65; 
     status CLOSED; 
} 

object fuse:4078 { 
     name R5-12-47-5_fuse_89; 
     phases AN; 
     from R5-12-47-5_node_199; 
     to R5-12-47-5_node_197; 
     current_limit 50; 
     status CLOSED; 
} 

object fuse:4079 { 
     name R5-12-47-5_fuse_90; 
     phases ABCN; 
     from R5-12-47-5_node_649; 
     to R5-12-47-5_node_644; 
     current_limit 65; 
     status CLOSED; 
} 

object fuse:4080 { 
     name R5-12-47-5_fuse_91; 
     phases CN; 
     from R5-12-47-5_node_10; 
     to R5-12-47-5_node_9; 
     current_limit 30; 
     status CLOSED; 
} 

object fuse:4081 { 
     name R5-12-47-5_fuse_92; 
     phases ABCN; 
     from R5-12-47-5_node_713; 
     to R5-12-47-5_node_646; 
     current_limit 200; 
     status CLOSED; 
} 

object fuse:4082 { 
     name R5-12-47-5_fuse_93; 
     phases CN; 
     from R5-12-47-5_node_712; 
     to R5-12-47-5_node_18; 
     current_limit 65; 
     status CLOSED; 
} 

object fuse:4083 { 
     name R5-12-47-5_fuse_94; 
     phases CN; 
     from R5-12-47-5_node_164; 
     to R5-12-47-5_node_44; 
     current_limit 15; 
     status CLOSED; 
} 

object fuse:4084 { 
     name R5-12-47-5_fuse_95; 
     phases ABCN; 
     from R5-12-47-5_node_839; 
     to R5-12-47-5_node_840; 
     current_limit 5; 
     status CLOSED; 
} 

object fuse:4085 { 
     name R5-12-47-5_fuse_96; 
     phases ABCN; 
     from R5-12-47-5_node_40; 
     to R5-12-47-5_node_25; 
     current_limit 100; 
     status CLOSED; 
} 

object fuse:4086 { 
     name R5-12-47-5_fuse_97; 
     phases CN; 
     from R5-12-47-5_node_896; 
     to R5-12-47-5_node_893; 
     current_limit 65; 
     status CLOSED; 
} 

object fuse:4087 { 
     name R5-12-47-5_fuse_98; 
     phases AN; 
     from R5-12-47-5_node_896; 
     to R5-12-47-5_node_897; 
     current_limit 50; 
     status CLOSED; 
} 

object fuse:4088 { 
     name R5-12-47-5_fuse_99; 
     phases BN; 
     from R5-12-47-5_node_997; 
     to R5-12-47-5_node_798; 
     current_limit 100; 
     status CLOSED; 
} 

object fuse:4089 { 
     name R5-12-47-5_fuse_100; 
     phases CN; 
     from R5-12-47-5_node_990; 
     to R5-12-47-5_node_992; 
     current_limit 80; 
     status CLOSED; 
} 

object fuse:4090 { 
     name R5-12-47-5_fuse_101; 
     phases CN; 
     from R5-12-47-5_node_345; 
     to R5-12-47-5_node_346; 
     current_limit 50; 
     status CLOSED; 
} 

object fuse:4091 { 
     name R5-12-47-5_fuse_102; 
     phases CN; 
     from R5-12-47-5_node_43; 
     to R5-12-47-5_node_157; 
     current_limit 15; 
     status CLOSED; 
} 

object fuse:4092 { 
     name R5-12-47-5_fuse_103; 
     phases CN; 
     from R5-12-47-5_node_156; 
     to R5-12-47-5_node_1099; 
     current_limit 30; 
     status CLOSED; 
} 

object fuse:4093 { 
     name R5-12-47-5_fuse_104; 
     phases ABCN; 
     from R5-12-47-5_node_874; 
     to R5-12-47-5_node_878; 
     current_limit 250; 
     status CLOSED; 
} 

object fuse:4094 { 
     name R5-12-47-5_fuse_105; 
     phases ABCN; 
     from R5-12-47-5_node_843; 
     to R5-12-47-5_node_844; 
     current_limit 100; 
     status CLOSED; 
} 

object fuse:4095 { 
     name R5-12-47-5_fuse_106; 
     phases ABCN; 
     from R5-12-47-5_node_651; 
     to R5-12-47-5_node_674; 
     current_limit 100; 
     status CLOSED; 
} 

object fuse:4096 { 
     name R5-12-47-5_fuse_107; 
     phases AN; 
     from R5-12-47-5_node_1030; 
     to R5-12-47-5_node_1031; 
     current_limit 65; 
     status CLOSED; 
} 

object fuse:4097 { 
     name R5-12-47-5_fuse_108; 
     phases ABCN; 
     from R5-12-47-5_node_261; 
     to R5-12-47-5_node_265; 
     current_limit 80; 
     status CLOSED; 
} 

object fuse:4098 { 
     name R5-12-47-5_fuse_109; 
     phases ACN; 
     from R5-12-47-5_node_498; 
     to R5-12-47-5_node_494; 
     current_limit 80; 
     status CLOSED; 
} 

object fuse:4099 { 
     name R5-12-47-5_fuse_110; 
     phases AN; 
     from R5-12-47-5_node_25; 
     to R5-12-47-5_node_42; 
     current_limit 65; 
     status CLOSED; 
} 

object fuse:4100 { 
     name R5-12-47-5_fuse_111; 
     phases BN; 
     from R5-12-47-5_node_25; 
     to R5-12-47-5_node_37; 
     current_limit 65; 
     status CLOSED; 
} 

object fuse:4101 { 
     name R5-12-47-5_fuse_112; 
     phases BN; 
     from R5-12-47-5_node_23; 
     to R5-12-47-5_node_39; 
     current_limit 65; 
     status CLOSED; 
} 

object fuse:4102 { 
     name R5-12-47-5_fuse_113; 
     phases AN; 
     from R5-12-47-5_node_1024; 
     to R5-12-47-5_node_1023; 
     current_limit 65; 
     status CLOSED; 
} 

object fuse:4103 { 
     name R5-12-47-5_fuse_114; 
     phases CN; 
     from R5-12-47-5_node_1046; 
     to R5-12-47-5_node_1048; 
     current_limit 65; 
     status CLOSED; 
} 

object fuse:4104 { 
     name R5-12-47-5_fuse_115; 
     phases CN; 
     from R5-12-47-5_node_24; 
     to R5-12-47-5_node_38; 
     current_limit 65; 
     status CLOSED; 
} 

object fuse:4105 { 
     name R5-12-47-5_fuse_116; 
     phases AN; 
     from R5-12-47-5_node_24; 
     to R5-12-47-5_node_41; 
     current_limit 65; 
     status CLOSED; 
} 

object fuse:4106 { 
     name R5-12-47-5_fuse_117; 
     phases BN; 
     from R5-12-47-5_node_488; 
     to R5-12-47-5_node_478; 
     current_limit 80; 
     status CLOSED; 
} 

object fuse:4107 { 
     name R5-12-47-5_fuse_118; 
     phases BN; 
     from R5-12-47-5_node_642; 
     to R5-12-47-5_node_652; 
     current_limit 65; 
     status CLOSED; 
} 

object fuse:4108 { 
     name R5-12-47-5_fuse_119; 
     phases BN; 
     from R5-12-47-5_node_640; 
     to R5-12-47-5_node_647; 
     current_limit 80; 
     status CLOSED; 
} 

object fuse:4109 { 
     name R5-12-47-5_fuse_120; 
     phases ABCN; 
     from R5-12-47-5_node_648; 
     to R5-12-47-5_node_632; 
     current_limit 80; 
     status CLOSED; 
} 

object fuse:4110 { 
     name R5-12-47-5_fuse_121; 
     phases AN; 
     from R5-12-47-5_node_253; 
     to R5-12-47-5_node_235; 
     current_limit 80; 
     status CLOSED; 
} 

object fuse:4111 { 
     name R5-12-47-5_fuse_122; 
     phases CN; 
     from R5-12-47-5_node_636; 
     to R5-12-47-5_node_655; 
     current_limit 80; 
     status CLOSED; 
} 

object fuse:4112 { 
     name R5-12-47-5_fuse_123; 
     phases AN; 
     from R5-12-47-5_node_248; 
     to R5-12-47-5_node_238; 
     current_limit 100; 
     status CLOSED; 
} 

object fuse:4113 { 
     name R5-12-47-5_fuse_124; 
     phases AN; 
     from R5-12-47-5_node_247; 
     to R5-12-47-5_node_236; 
     current_limit 80; 
     status CLOSED; 
} 

object fuse:4114 { 
     name R5-12-47-5_fuse_125; 
     phases CN; 
     from R5-12-47-5_node_245; 
     to R5-12-47-5_node_260; 
     current_limit 80; 
     status CLOSED; 
} 

object fuse:4115 { 
     name R5-12-47-5_fuse_126; 
     phases CN; 
     from R5-12-47-5_node_635; 
     to R5-12-47-5_node_654; 
     current_limit 80; 
     status CLOSED; 
} 

object fuse:4116 { 
     name R5-12-47-5_fuse_127; 
     phases ACN; 
     from R5-12-47-5_node_635; 
     to R5-12-47-5_node_621; 
     current_limit 80; 
     status CLOSED; 
} 

object fuse:4117 { 
     name R5-12-47-5_fuse_128; 
     phases CN; 
     from R5-12-47-5_node_243; 
     to R5-12-47-5_node_237; 
     current_limit 100; 
     status CLOSED; 
} 

object fuse:4118 { 
     name R5-12-47-5_fuse_129; 
     phases ABCN; 
     from R5-12-47-5_node_633; 
     to R5-12-47-5_node_638; 
     current_limit 100; 
     status CLOSED; 
} 

object fuse:4119 { 
     name R5-12-47-5_fuse_130; 
     phases BN; 
     from R5-12-47-5_node_239; 
     to R5-12-47-5_node_234; 
     current_limit 80; 
     status CLOSED; 
} 

object fuse:4120 { 
     name R5-12-47-5_fuse_131; 
     phases CN; 
     from R5-12-47-5_node_239; 
     to R5-12-47-5_node_259; 
     current_limit 100; 
     status CLOSED; 
} 

object fuse:4121 { 
     name R5-12-47-5_fuse_132; 
     phases AN; 
     from R5-12-47-5_node_240; 
     to R5-12-47-5_node_231; 
     current_limit 80; 
     status CLOSED; 
} 

object fuse:4122 { 
     name R5-12-47-5_fuse_133; 
     phases AN; 
     from R5-12-47-5_node_134; 
     to R5-12-47-5_node_127; 
     current_limit 100; 
     status CLOSED; 
} 

object fuse:4123 { 
     name R5-12-47-5_fuse_134; 
     phases BN; 
     from R5-12-47-5_node_131; 
     to R5-12-47-5_node_128; 
     current_limit 100; 
     status CLOSED; 
} 

object fuse:4124 { 
     name R5-12-47-5_fuse_135; 
     phases BCN; 
     from R5-12-47-5_node_634; 
     to R5-12-47-5_node_619; 
     current_limit 80; 
     status CLOSED; 
} 

object fuse:4125 { 
     name R5-12-47-5_fuse_136; 
     phases AN; 
     from R5-12-47-5_node_126; 
     to R5-12-47-5_node_122; 
     current_limit 100; 
     status CLOSED; 
} 

object fuse:4126 { 
     name R5-12-47-5_fuse_137; 
     phases CN; 
     from R5-12-47-5_node_125; 
     to R5-12-47-5_node_120; 
     current_limit 100; 
     status CLOSED; 
} 

object fuse:4127 { 
     name R5-12-47-5_fuse_138; 
     phases CN; 
     from R5-12-47-5_node_482; 
     to R5-12-47-5_node_472; 
     current_limit 80; 
     status CLOSED; 
} 

object fuse:4128 { 
     name R5-12-47-5_fuse_139; 
     phases CN; 
     from R5-12-47-5_node_492; 
     to R5-12-47-5_node_476; 
     current_limit 80; 
     status CLOSED; 
} 

object fuse:4129 { 
     name R5-12-47-5_fuse_140; 
     phases AN; 
     from R5-12-47-5_node_121; 
     to R5-12-47-5_node_113; 
     current_limit 80; 
     status CLOSED; 
} 

object fuse:4130 { 
     name R5-12-47-5_fuse_141; 
     phases BN; 
     from R5-12-47-5_node_486; 
     to R5-12-47-5_node_475; 
     current_limit 100; 
     status CLOSED; 
} 

object fuse:4131 { 
     name R5-12-47-5_fuse_142; 
     phases CN; 
     from R5-12-47-5_node_120; 
     to R5-12-47-5_node_105; 
     current_limit 4; 
     status CLOSED; 
} 

object fuse:4132 { 
     name R5-12-47-5_fuse_143; 
     phases AN; 
     from R5-12-47-5_node_113; 
     to R5-12-47-5_node_103; 
     current_limit 8; 
     status CLOSED; 
} 

object fuse:4133 { 
     name R5-12-47-5_fuse_144; 
     phases AN; 
     from R5-12-47-5_node_110; 
     to R5-12-47-5_node_101; 
     current_limit 100; 
     status CLOSED; 
} 

object fuse:4134 { 
     name R5-12-47-5_fuse_145; 
     phases BN; 
     from R5-12-47-5_node_465; 
     to R5-12-47-5_node_466; 
     current_limit 50; 
     status CLOSED; 
} 

object fuse:4135 { 
     name R5-12-47-5_fuse_146; 
     phases BN; 
     from R5-12-47-5_node_464; 
     to R5-12-47-5_node_463; 
     current_limit 50; 
     status CLOSED; 
} 

object fuse:4136 { 
     name R5-12-47-5_fuse_147; 
     phases AN; 
     from R5-12-47-5_node_114; 