// $Id: R1-12.47-2.glm 
// 12.47 kV feeder
//*********************************************
// validates voltages with FBS at selected load, node, meter, triplex_node, and
// triplex_meter objects
// created by: alek332
clock{
	timezone EST+8EDT;
	timestamp '2000-01-01 0:00:00';
	stoptime '2000-01-01 0:30:00';
}

#set profiler=1
//*********************************************
// modules

module tape;
module powerflow{
	solver_method FBS;
	default_maximum_voltage_error 1e-6;
	line_limits FALSE;
};
module assert;
//*********************************************

object regulator:2078 {
	name R1-12-47-2_reg_1;
	from R1-12-47-2_node_338;
	to R1-12-47-2_meter_14;
	phases ABCN;
	configuration regulator_configuration:2079;
	object recorder {
		 property tap_A,tap_B,tap_C,power_in_A.real,power_in_A.imag,power_in_B.real,power_in_B.imag,power_in_C.real,power_in_C.imag,power_in.real,power_in.imag;
		 limit 1440;
		 interval 60;
		 file "R1-12.27-2_reg_output.csv";
	};

}


object regulator_configuration:2079 {
	name feeder_reg_cfg;
	connect_type WYE_WYE;
	Control OUTPUT_VOLTAGE;
	band_center 7200;
	band_width 120;
	time_delay 30;
	raise_taps 16;
	lower_taps 16;
	regulation 0.10;
	tap_pos_A 0;
	tap_pos_B 0;
	tap_pos_C 0;
}


object capacitor:2076 {
	name R1-12-47-2_cap_1;
	phases ABCN;
	pt_phase A;
	parent R1-12-47-2_node_54;
	phases_connected ABC;
	control VOLT;
	voltage_set_high 7300; 
	voltage_set_low 7100; 
	capacitor_A 0.15 MVAr;
	capacitor_B 0.15 MVAr;
	capacitor_C 0.15 MVAr;
	control_level INDIVIDUAL;
	time_delay 30.0;
	dwell_time 30.0;
	cap_nominal_voltage 7200;
	nominal_voltage 7200;
	// object recorder {
		// property "switchA,switchB,switchC,voltage_A.real,voltage_A.imag,voltage_B.real,voltage_B.imag,voltage_C.real,voltage_C.imag";
		// file R1-12.47-2_capacitor1.csv;
		// interval 60;
		// limit 1440;
	// };
}


object fuse:1988 {
	name R1-12-47-2_fuse_1;
	phases ABCN;
	from R1-12-47-2_node_4;
	to R1-12-47-2_node_5;
	current_limit 80;
	status CLOSED;
}

object fuse:1989 {
	name R1-12-47-2_fuse_2;
	phases ABCN;
	from R1-12-47-2_node_5;
	to R1-12-47-2_node_6;
	current_limit 40;
	status CLOSED;
}

object fuse:1990 {
	name R1-12-47-2_fuse_3;
	phases AN;
	from R1-12-47-2_node_7;
	to R1-12-47-2_node_8;
	current_limit 40;
	status CLOSED;
}

object fuse:1991 {
	name R1-12-47-2_fuse_4;
	phases AN;
	from R1-12-47-2_node_10;
	to R1-12-47-2_node_11;
	current_limit 30;
	status CLOSED;
}

object fuse:1992 {
	name R1-12-47-2_fuse_5;
	phases AN;
	from R1-12-47-2_node_12;
	to R1-12-47-2_node_13;
	current_limit 30;
	status CLOSED;
}

object fuse:1993 {
	name R1-12-47-2_fuse_6;
	phases CN;
	from R1-12-47-2_node_18;
	to R1-12-47-2_node_19;
	current_limit 10;
	status CLOSED;
}

object fuse:1994 {
	name R1-12-47-2_fuse_7;
	phases BN;
	from R1-12-47-2_node_21;
	to R1-12-47-2_node_22;
	current_limit 10;
	status CLOSED;
}

object fuse:1995 {
	name R1-12-47-2_fuse_8;
	phases AN;
	from R1-12-47-2_node_24;
	to R1-12-47-2_node_25;
	current_limit 10;
	status CLOSED;
}

object fuse:1996 {
	name R1-12-47-2_fuse_9;
	phases BCN;
	from R1-12-47-2_node_28;
	to R1-12-47-2_node_29;
	current_limit 80;
	status CLOSED;
}

object fuse:1997 {
	name R1-12-47-2_fuse_10;
	phases BN;
	from R1-12-47-2_node_33;
	to R1-12-47-2_node_34;
	current_limit 30;
	status CLOSED;
}

object fuse:1998 {
	name R1-12-47-2_fuse_11;
	phases CN;
	from R1-12-47-2_node_33;
	to R1-12-47-2_node_35;
	current_limit 30;
	status CLOSED;
}

object fuse:1999 {
	name R1-12-47-2_fuse_12;
	phases CN;
	from R1-12-47-2_node_36;
	to R1-12-47-2_node_37;
	current_limit 10;
	status CLOSED;
}

object fuse:2000 {
	name R1-12-47-2_fuse_13;
	phases CN;
	from R1-12-47-2_node_39;
	to R1-12-47-2_node_40;
	current_limit 10;
	status CLOSED;
}

object fuse:2001 {
	name R1-12-47-2_fuse_14;
	phases CN;
	from R1-12-47-2_node_41;
	to R1-12-47-2_node_43;
	current_limit 10;
	status CLOSED;
}

object fuse:2002 {
	name R1-12-47-2_fuse_15;
	phases CN;
	from R1-12-47-2_node_42;
	to R1-12-47-2_node_44;
	current_limit 10;
	status CLOSED;
}

object fuse:2003 {
	name R1-12-47-2_fuse_16;
	phases CN;
	from R1-12-47-2_node_45;
	to R1-12-47-2_node_46;
	current_limit 10;
	status CLOSED;
}

object fuse:2004 {
	name R1-12-47-2_fuse_17;
	phases CN;
	from R1-12-47-2_node_49;
	to R1-12-47-2_node_50;
	current_limit 10;
	status CLOSED;
}

object fuse:2005 {
	name R1-12-47-2_fuse_18;
	phases CN;
	from R1-12-47-2_node_51;
	to R1-12-47-2_node_52;
	current_limit 10;
	status CLOSED;
}

object fuse:2006 {
	name R1-12-47-2_fuse_19;
	phases CN;
	from R1-12-47-2_node_51;
	to R1-12-47-2_node_53;
	current_limit 10;
	status CLOSED;
}

object fuse:2007 {
	name R1-12-47-2_fuse_20;
	phases BN;
	from R1-12-47-2_node_57;
	to R1-12-47-2_node_58;
	current_limit 65;
	status CLOSED;
}

object fuse:2008 {
	name R1-12-47-2_fuse_21;
	phases BN;
	from R1-12-47-2_node_61;
	to R1-12-47-2_node_62;
	current_limit 10;
	status CLOSED;
}

object fuse:2009 {
	name R1-12-47-2_fuse_22;
	phases BN;
	from R1-12-47-2_node_67;
	to R1-12-47-2_node_68;
	current_limit 10;
	status CLOSED;
}

object fuse:2010 {
	name R1-12-47-2_fuse_23;
	phases BN;
	from R1-12-47-2_node_73;
	to R1-12-47-2_node_74;
	current_limit 10;
	status CLOSED;
}

object fuse:2011 {
	name R1-12-47-2_fuse_24;
	phases BN;
	from R1-12-47-2_node_75;
	to R1-12-47-2_node_76;
	current_limit 10;
	status CLOSED;
}

object fuse:2012 {
	name R1-12-47-2_fuse_25;
	phases BN;
	from R1-12-47-2_node_78;
	to R1-12-47-2_node_79;
	current_limit 10;
	status CLOSED;
}

object fuse:2013 {
	name R1-12-47-2_fuse_26;
	phases BN;
	from R1-12-47-2_node_81;
	to R1-12-47-2_node_82;
	current_limit 10;
	status CLOSED;
}

object fuse:2014 {
	name R1-12-47-2_fuse_27;
	phases BN;
	from R1-12-47-2_node_81;
	to R1-12-47-2_node_83;
	current_limit 10;
	status CLOSED;
}

object fuse:2015 {
	name R1-12-47-2_fuse_28;
	phases BN;
	from R1-12-47-2_node_84;
	to R1-12-47-2_node_85;
	current_limit 40;
	status CLOSED;
}

object fuse:2016 {
	name R1-12-47-2_fuse_29;
	phases BN;
	from R1-12-47-2_node_85;
	to R1-12-47-2_node_86;
	current_limit 25;
	status CLOSED;
}

object fuse:2017 {
	name R1-12-47-2_fuse_30;
	phases BN;
	from R1-12-47-2_node_89;
	to R1-12-47-2_node_90;
	current_limit 15;
	status CLOSED;
}

object fuse:2018 {
	name R1-12-47-2_fuse_31;
	phases BN;
	from R1-12-47-2_node_93;
	to R1-12-47-2_node_95;
	current_limit 10;
	status CLOSED;
}

object fuse:2019 {
	name R1-12-47-2_fuse_32;
	phases BN;
	from R1-12-47-2_node_85;
	to R1-12-47-2_node_96;
	current_limit 10;
	status CLOSED;
}

object fuse:2020 {
	name R1-12-47-2_fuse_33;
	phases BN;
	from R1-12-47-2_node_97;
	to R1-12-47-2_node_336;
	current_limit 20;
	status CLOSED;
}

object fuse:2021 {
	name R1-12-47-2_fuse_34;
	phases BN;
	from R1-12-47-2_node_100;
	to R1-12-47-2_node_102;
	current_limit 10;
	status CLOSED;
}

object fuse:2022 {
	name R1-12-47-2_fuse_35;
	phases BN;
	from R1-12-47-2_node_101;
	to R1-12-47-2_node_103;
	current_limit 10;
	status CLOSED;
}

object fuse:2023 {
	name R1-12-47-2_fuse_36;
	phases BN;
	from R1-12-47-2_node_99;
	to R1-12-47-2_node_105;
	current_limit 10;
	status CLOSED;
}

object fuse:2024 {
	name R1-12-47-2_fuse_37;
	phases BN;
	from R1-12-47-2_node_336;
	to R1-12-47-2_node_337;
	current_limit 10;
	status CLOSED;
}

object fuse:2025 {
	name R1-12-47-2_fuse_38;
	phases BN;
	from R1-12-47-2_node_107;
	to R1-12-47-2_node_108;
	current_limit 10;
	status CLOSED;
}

object fuse:2026 {
	name R1-12-47-2_fuse_39;
	phases BN;
	from R1-12-47-2_node_109;
	to R1-12-47-2_node_110;
	current_limit 10;
	status CLOSED;
}

object fuse:2027 {
	name R1-12-47-2_fuse_40;
	phases ABCN;
	from R1-12-47-2_node_57;
	to R1-12-47-2_node_111;
	current_limit 120;
	status CLOSED;
}

object fuse:2028 {
	name R1-12-47-2_fuse_41;
	phases AN;
	from R1-12-47-2_node_112;
	to R1-12-47-2_node_113;
	current_limit 10;
	status CLOSED;
}

object fuse:2029 {
	name R1-12-47-2_fuse_42;
	phases AN;
	from R1-12-47-2_node_114;
	to R1-12-47-2_node_115;
	current_limit 10;
	status CLOSED;
}

object fuse:2030 {
	name R1-12-47-2_fuse_43;
	phases BN;
	from R1-12-47-2_node_116;
	to R1-12-47-2_node_323;
	current_limit 30;
	status CLOSED;
}

object fuse:2031 {
	name R1-12-47-2_fuse_44;
	phases ABN;
	from R1-12-47-2_node_118;
	to R1-12-47-2_node_119;
	current_limit 85;
	status CLOSED;
}

object fuse:2032 {
	name R1-12-47-2_fuse_45;
	phases BN;
	from R1-12-47-2_node_122;
	to R1-12-47-2_node_123;
	current_limit 10;
	status CLOSED;
}

object fuse:2033 {
	name R1-12-47-2_fuse_46;
	phases AN;
	from R1-12-47-2_node_129;
	to R1-12-47-2_node_128;
	current_limit 15;
	status CLOSED;
}

object fuse:2034 {
	name R1-12-47-2_fuse_47;
	phases AN;
	from R1-12-47-2_node_133;
	to R1-12-47-2_node_135;
	current_limit 10;
	status CLOSED;
}

object fuse:2035 {
	name R1-12-47-2_fuse_48;
	phases AN;
	from R1-12-47-2_node_139;
	to R1-12-47-2_node_140;
	current_limit 10;
	status CLOSED;
}

object fuse:2036 {
	name R1-12-47-2_fuse_49;
	phases AN;
	from R1-12-47-2_node_126;
	to R1-12-47-2_node_141;
	current_limit 40;
	status CLOSED;
}

object fuse:2037 {
	name R1-12-47-2_fuse_50;
	phases AN;
	from R1-12-47-2_node_141;
	to R1-12-47-2_node_142;
	current_limit 10;
	status CLOSED;
}

object fuse:2038 {
	name R1-12-47-2_fuse_51;
	phases AN;
	from R1-12-47-2_node_144;
	to R1-12-47-2_node_145;
	current_limit 10;
	status CLOSED;
}

object fuse:2039 {
	name R1-12-47-2_fuse_52;
	phases AN;
	from R1-12-47-2_node_148;
	to R1-12-47-2_node_308;
	current_limit 10;
	status CLOSED;
}

object fuse:2040 {
	name R1-12-47-2_fuse_53;
	phases AN;
	from R1-12-47-2_node_148;
	to R1-12-47-2_node_150;
	current_limit 25;
	status CLOSED;
}

object fuse:2041 {
	name R1-12-47-2_fuse_54;
	phases CN;
	from R1-12-47-2_node_118;
	to R1-12-47-2_node_164;
	current_limit 50;
	status CLOSED;
}

object fuse:2042 {
	name R1-12-47-2_fuse_55;
	phases CN;
	from R1-12-47-2_node_164;
	to R1-12-47-2_node_165;
	current_limit 10;
	status CLOSED;
}

object fuse:2043 {
	name R1-12-47-2_fuse_56;
	phases CN;
	from R1-12-47-2_node_166;
	to R1-12-47-2_node_168;
	current_limit 30;
	status CLOSED;
}

object fuse:2044 {
	name R1-12-47-2_fuse_57;
	phases BN;
	from R1-12-47-2_node_184;
	to R1-12-47-2_node_334;
	current_limit 10;
	status CLOSED;
}

object fuse:2045 {
	name R1-12-47-2_fuse_58;
	phases CN;
	from R1-12-47-2_node_185;
	to R1-12-47-2_node_186;
	current_limit 10;
	status CLOSED;
}

object fuse:2046 {
	name R1-12-47-2_fuse_59;
	phases CN;
	from R1-12-47-2_node_187;
	to R1-12-47-2_node_188;
	current_limit 10;
	status CLOSED;
}

object fuse:2047 {
	name R1-12-47-2_fuse_60;
	phases CN;
	from R1-12-47-2_node_189;
	to R1-12-47-2_node_190;
	current_limit 30;
	status CLOSED;
}

object fuse:2048 {
	name R1-12-47-2_fuse_61;
	phases BN;
	from R1-12-47-2_node_208;
	to R1-12-47-2_node_209;
	current_limit 10;
	status CLOSED;
}

object fuse:2049 {
	name R1-12-47-2_fuse_62;
	phases CN;
	from R1-12-47-2_node_210;
	to R1-12-47-2_node_211;
	current_limit 15;
	status CLOSED;
}

object fuse:2050 {
	name R1-12-47-2_fuse_63;
	phases BCN;
	from R1-12-47-2_node_215;
	to R1-12-47-2_node_216;
	current_limit 10;
	status CLOSED;
}

object fuse:2051 {
	name R1-12-47-2_fuse_64;
	phases CN;
	from R1-12-47-2_node_217;
	to R1-12-47-2_node_335;
	current_limit 10;
	status CLOSED;
}

object fuse:2052 {
	name R1-12-47-2_fuse_65;
	phases BCN;
	from R1-12-47-2_node_217;
	to R1-12-47-2_node_320;
	current_limit 30;
	status CLOSED;
}

object fuse:2053 {
	name R1-12-47-2_fuse_66;
	phases BN;
	from R1-12-47-2_node_222;
	to R1-12-47-2_node_223;
	current_limit 40;
	status CLOSED;
}

object fuse:2054 {
	name R1-12-47-2_fuse_67;
	phases BN;
	from R1-12-47-2_node_232;
	to R1-12-47-2_node_233;
	current_limit 10;
	status CLOSED;
}

object fuse:2055 {
	name R1-12-47-2_fuse_68;
	phases BN;
	from R1-12-47-2_node_235;
	to R1-12-47-2_node_236;
	current_limit 10;
	status CLOSED;
}

object fuse:2056 {
	name R1-12-47-2_fuse_69;
	phases CN;
	from R1-12-47-2_node_238;
	to R1-12-47-2_node_239;
	current_limit 10;
	status CLOSED;
}

object fuse:2057 {
	name R1-12-47-2_fuse_70;
	phases CN;
	from R1-12-47-2_node_238;
	to R1-12-47-2_node_240;
	current_limit 10;
	status CLOSED;
}

object fuse:2058 {
	name R1-12-47-2_fuse_71;
	phases CN;
	from R1-12-47-2_node_242;
	to R1-12-47-2_node_243;
	current_limit 30;
	status CLOSED;
}

object fuse:2059 {
	name R1-12-47-2_fuse_72;
	phases CN;
	from R1-12-47-2_node_251;
	to R1-12-47-2_node_252;
	current_limit 10;
	status CLOSED;
}

object fuse:2060 {
	name R1-12-47-2_fuse_73;
	phases BN;
	from R1-12-47-2_node_254;
	to R1-12-47-2_node_255;
	current_limit 10;
	status CLOSED;
}

object fuse:2061 {
	name R1-12-47-2_fuse_74;
	phases BN;
	from R1-12-47-2_node_259;
	to R1-12-47-2_node_310;
	current_limit 15;
	status CLOSED;
}

object fuse:2062 {
	name R1-12-47-2_fuse_75;
	phases CN;
	from R1-12-47-2_node_265;
	to R1-12-47-2_node_266;
	current_limit 10;
	status CLOSED;
}

object fuse:2063 {
	name R1-12-47-2_fuse_76;
	phases CN;
	from R1-12-47-2_node_267;
	to R1-12-47-2_node_268;
	current_limit 10;
	status CLOSED;
}

object fuse:2064 {
	name R1-12-47-2_fuse_77;
	phases BN;
	from R1-12-47-2_node_272;
	to R1-12-47-2_node_273;
	current_limit 30;
	status CLOSED;
}

object fuse:2065 {
	name R1-12-47-2_fuse_78;
	phases BN;
	from R1-12-47-2_node_273;
	to R1-12-47-2_node_275;
	current_limit 20;
	status CLOSED;
}

object fuse:2066 {
	name R1-12-47-2_fuse_79;
	phases BN;
	from R1-12-47-2_node_275;
	to R1-12-47-2_node_276;
	current_limit 25;
	status CLOSED;
}

object fuse:2067 {
	name R1-12-47-2_fuse_80;
	phases BN;
	from R1-12-47-2_node_117;
	to R1-12-47-2_node_307;
	current_limit 10;
	status CLOSED;
}

object fuse:2068 {
	name R1-12-47-2_fuse_81;
	phases BN;
	from R1-12-47-2_node_315;
	to R1-12-47-2_node_316;
	current_limit 10;
	status CLOSED;
}

object fuse:2069 {
	name R1-12-47-2_fuse_82;
	phases BN;
	from R1-12-47-2_node_106;
	to R1-12-47-2_node_318;
	current_limit 10;
	status CLOSED;
}

object fuse:2070 {
	name R1-12-47-2_fuse_83;
	phases BN;
	from R1-12-47-2_node_320;
	to R1-12-47-2_node_321;
	current_limit 10;
	status CLOSED;
}

object fuse:2071 {
	name R1-12-47-2_fuse_84;
	phases AN;
	from R1-12-47-2_node_329;
	to R1-12-47-2_node_331;
	current_limit 10;
	status CLOSED;
}


object line_configuration:21 {
	conductor_A underground_line_conductor:2;
	conductor_B underground_line_conductor:2;
	conductor_C underground_line_conductor:2;
	conductor_N underground_line_conductor:2;
	spacing line_spacing:10;
}

object line_configuration:22 {
	conductor_A overhead_line_conductor:3;
	conductor_B overhead_line_conductor:3;
	conductor_C overhead_line_conductor:3;
	conductor_N overhead_line_conductor:3;
	spacing line_spacing:11;
}

object line_configuration:23 {
	conductor_A overhead_line_conductor:4;
	conductor_B overhead_line_conductor:4;
	conductor_C overhead_line_conductor:4;
	conductor_N overhead_line_conductor:4;
	spacing line_spacing:11;
}

object line_configuration:24 {
	conductor_A underground_line_conductor:5;
	conductor_B underground_line_conductor:5;
	conductor_C underground_line_conductor:5;
	conductor_N underground_line_conductor:5;
	spacing line_spacing:10;
}

object line_configuration:25 {
	conductor_A overhead_line_conductor:4;
	conductor_N overhead_line_conductor:4;
	spacing line_spacing:12;
}

object line_configuration:26 {
	conductor_A underground_line_conductor:5;
	conductor_N underground_line_conductor:5;
	spacing line_spacing:13;
}

object line_configuration:27 {
	conductor_A overhead_line_conductor:3;
	conductor_B overhead_line_conductor:3;
	conductor_C overhead_line_conductor:3;
	conductor_N overhead_line_conductor:3;
	spacing line_spacing:11;
}

object line_configuration:28 {
	conductor_C overhead_line_conductor:4;
	conductor_N overhead_line_conductor:4;
	spacing line_spacing:14;
}

object line_configuration:29 {
	conductor_C overhead_line_conductor:6;
	conductor_N overhead_line_conductor:6;
	spacing line_spacing:14;
}

object line_configuration:30 {
	conductor_B overhead_line_conductor:6;
	conductor_N overhead_line_conductor:6;
	spacing line_spacing:15;
}

object line_configuration:31 {
	conductor_B overhead_line_conductor:4;
	conductor_N overhead_line_conductor:4;
	spacing line_spacing:15;
}

object line_configuration:32 {
	conductor_A overhead_line_conductor:7;
	conductor_N overhead_line_conductor:7;
	spacing line_spacing:12;
}

object line_configuration:33 {
	conductor_B overhead_line_conductor:6;
	conductor_C overhead_line_conductor:6;
	conductor_N overhead_line_conductor:6;
	spacing line_spacing:16;
}

object line_configuration:34 {
	conductor_C overhead_line_conductor:4;
	conductor_N overhead_line_conductor:4;
	spacing line_spacing:14;
}

object line_configuration:35 {
	conductor_B overhead_line_conductor:4;
	conductor_C overhead_line_conductor:4;
	conductor_N overhead_line_conductor:4;
	spacing line_spacing:16;
}

object line_configuration:36 {
	conductor_B underground_line_conductor:5;
	conductor_N underground_line_conductor:5;
	spacing line_spacing:17;
}

object line_configuration:37 {
	conductor_C underground_line_conductor:5;
	conductor_N underground_line_conductor:5;
	spacing line_spacing:18;
}

object line_configuration:38 {
	conductor_C overhead_line_conductor:8;
	conductor_N overhead_line_conductor:8;
	spacing line_spacing:14;
}

object line_configuration:39 {
	conductor_A overhead_line_conductor:3;
	conductor_B overhead_line_conductor:3;
	conductor_C overhead_line_conductor:3;
	conductor_N overhead_line_conductor:3;
	spacing line_spacing:11;
}

object line_configuration:40 {
	conductor_A overhead_line_conductor:9;
	conductor_B overhead_line_conductor:9;
	conductor_C overhead_line_conductor:9;
	conductor_N overhead_line_conductor:9;
	spacing line_spacing:11;
}

object line_configuration:41 {
	conductor_B overhead_line_conductor:8;
	conductor_N overhead_line_conductor:8;
	spacing line_spacing:15;
}

object line_configuration:42 {
	conductor_B underground_line_conductor:5;
	conductor_N underground_line_conductor:5;
	spacing line_spacing:15;
}

object line_configuration:43 {
	conductor_A overhead_line_conductor:9;
	conductor_B overhead_line_conductor:9;
	conductor_C overhead_line_conductor:9;
	conductor_N overhead_line_conductor:9;
	spacing line_spacing:11;
}

object line_configuration:44 {
	conductor_A overhead_line_conductor:6;
	conductor_N overhead_line_conductor:6;
	spacing line_spacing:12;
}

object line_configuration:45 {
	conductor_A overhead_line_conductor:6;
	conductor_B overhead_line_conductor:6;
	conductor_N overhead_line_conductor:6;
	spacing line_spacing:19;
}

object line_configuration:46 {
	conductor_A overhead_line_conductor:7;
	conductor_B overhead_line_conductor:7;
	conductor_N overhead_line_conductor:7;
	spacing line_spacing:19;
}

object line_configuration:47 {
	conductor_A overhead_line_conductor:6;
	conductor_B overhead_line_conductor:6;
	conductor_N overhead_line_conductor:6;
	spacing line_spacing:19;
}

object line_configuration:48 {
	conductor_B underground_line_conductor:5;
	conductor_C underground_line_conductor:5;
	conductor_N underground_line_conductor:5;
	spacing line_spacing:20;
}

object line_configuration:49 {
	conductor_A underground_line_conductor:5;
	conductor_N underground_line_conductor:5;
	spacing line_spacing:12;
}


object line_spacing:10 {
	distance_AB 0.0 in;
	distance_BC 0.0 in;
	distance_AC 0.0 in;
	distance_AN 0.0 in;
	distance_BN 0.0 in;
	distance_CN 0.0 in;
}

object line_spacing:11 {
	distance_AB 57.6 in;
	distance_BC 57.6 in;
	distance_AC 57.6 in;
	distance_AN 84.0 in;
	distance_BN 84.0 in;
	distance_CN 84.0 in;
}

object line_spacing:12 {
	distance_AN 84.0 in;
}

object line_spacing:13 {
	distance_AN 0.0 in;
}

object line_spacing:14 {
	distance_CN 84.0 in;
}

object line_spacing:15 {
	distance_BN 84.0 in;
}

object line_spacing:16 {
	distance_BC 57.6 in;
	distance_BN 84.0 in;
	distance_CN 84.0 in;
}

object line_spacing:17 {
	distance_BN 0.0 in;
}

object line_spacing:18 {
	distance_CN 0.0 in;
}

object line_spacing:19 {
	distance_AB 57.6 in;
	distance_AN 84.0 in;
	distance_BN 84.0 in;
}

object line_spacing:20 {
	distance_BC 0.0 in;
	distance_BN 0.0 in;
	distance_CN 0.0 in;
}


object load:387 {
	name R1-12-47-2_load_1;
	parent R1-12-47-2_meter_1;
	phases ABCN;
	voltage_A 7200+0.0j;
	voltage_B -3600-6235j;
	voltage_C -3600+6235j;
	constant_power_A 0+0j;
	constant_power_B 0+0j;
	constant_power_C 7585.7348+93.6417j;
	nominal_voltage 7200;
	load_class C;
	// object recorder {
		// property voltage_A,voltage_B,voltage_C;
		// interval 60;
		// limit 1440;
		// file "load_387.csv";
	// };
	object complex_assert{
		target voltage_A;
		value +277.084-0.101332j;
		within 1;
	};
	object complex_assert{
		target voltage_B;
		value -138.593-239.896j;
		within 1;
	};
	object complex_assert{
		target voltage_C;
		value -124.426+243.725j;
		within 1;
	};
}

object load:388 {
	name R1-12-47-2_load_2;
	parent R1-12-47-2_meter_2;
	phases ABCN;
	voltage_A 7200+0.0j;
	voltage_B -3600-6235j;
	voltage_C -3600+6235j;
	constant_power_A 82333+0j;
	constant_power_B 82333+0j;
	constant_power_C 82334+0j;
	nominal_voltage 7200;
	load_class C;
}

object load:389 {
	name R1-12-47-2_load_3;
	parent R1-12-47-2_meter_3;
	phases ABCN;
	voltage_A 7200+0.0j;
	voltage_B -3600-6235j;
	voltage_C -3600+6235j;
	constant_power_A 15564.4725+222.4254j;
	constant_power_B 11118.2659+338.5019j;
	constant_power_C 25285.7827+312.1391j;
	nominal_voltage 7200;
	load_class C;
}

object load:390 {
	name R1-12-47-2_load_4;
	parent R1-12-47-2_meter_4;
	phases AN;
	voltage_A 7200+0.0j;
	constant_power_A 15564.4725+222.4254j;
	nominal_voltage 7200;
	load_class C;
}

object load:391 {
	name R1-12-47-2_load_5;
	parent R1-12-47-2_meter_5;
	phases AN;
	voltage_A 7200+0.0j;
	constant_power_A 38911.1812+556.0636j;
	nominal_voltage 7200;
	load_class C;
}

object load:392 {
	name R1-12-47-2_load_6;
	parent R1-12-47-2_meter_6;
	phases AN;
	voltage_A 7200+0.0j;
	constant_power_A 11673.3544+166.8191j;
	nominal_voltage 7200;
	load_class C;
}

object load:393 {
	name R1-12-47-2_load_7;
	parent R1-12-47-2_meter_7;
	phases AN;
	voltage_A 7200+0.0j;
	constant_power_A 15564.4725+222.4254j;
	nominal_voltage 7200;
	load_class C;
}

object load:394 {
	name R1-12-47-2_load_8;
	parent R1-12-47-2_meter_8;
	phases BN;
	voltage_B -3600-6235j;
	constant_power_B 3335.4798+101.5506j;
	nominal_voltage 7200;
	load_class C;
}

object load:395 {
	name R1-12-47-2_load_9;
	parent R1-12-47-2_meter_9;
	phases BN;
	voltage_B -3600-6235j;
	constant_power_B 11118.2659+338.5019j;
	nominal_voltage 7200;
	load_class C;
}

object load:396 {
	name R1-12-47-2_load_10;
	parent R1-12-47-2_meter_10;
	phases ABCN;
	voltage_A 7200+0.0j;
	voltage_B -3600-6235j;
	voltage_C -3600+6235j;
	constant_power_A 4669.3417+66.7276j;
	constant_power_B 3335.4798+101.5506j;
	constant_power_C 0+0j;
	nominal_voltage 7200;
	load_class C;
}

object load:397 {
	name R1-12-47-2_load_11;
	parent R1-12-47-2_meter_11;
	phases AN;
	voltage_A 7200+0.0j;
	constant_power_A 15564.4725+222.4254j;
	nominal_voltage 7200;
	load_class C;
}

object load:398 {
	name R1-12-47-2_load_12;
	parent R1-12-47-2_meter_12;
	phases AN;
	voltage_A 7200+0.0j;
	constant_power_A 4669.3417+66.7276j;
	nominal_voltage 7200;
	load_class C;
}

object load:399 {
	name R1-12-47-2_load_13;
	parent R1-12-47-2_meter_13;
	phases AN;
	voltage_A 7200+0.0j;
	constant_power_A 7782.2362+111.2127j;
	nominal_voltage 7200;
	load_class C;
	// object recorder {
		// property voltage_A,voltage_B,voltage_C;
		// interval 60;
		// limit 1440;
		// file "load_399.csv";
	// };
	object complex_assert{
		target voltage_A;
		value +275.303-1.31839d;
		within 1;
	};
	object complex_assert{
		target voltage_B;
		value +0+0j;
		within 1;
	};
	object complex_assert{
		target voltage_C;
		value +0+0j;
		within 1;
	};
}


object meter:1153 {
	name R1-12-47-2_meter_1;
	phases ABCN;
	voltage_A 7200+0.0j;
	voltage_B -3600-6235j;
	voltage_C -3600+6235j;
	nominal_voltage 7200;
	// object recorder {
		// property voltage_A,voltage_B,voltage_C;
		// interval 60;
		// limit 1440;
		// file "meter_1153.csv";
	// };
	object complex_assert{
		target voltage_A;
		value +277.084-0.101332j;
		within 1;
	};
	object complex_assert{
		target voltage_B;
		value -138.593-239.896j;
		within 1;
	};
	object complex_assert{
		target voltage_C;
		value -124.426+243.725j;
		within 1;
	};
}

object meter:1154 {
	name R1-12-47-2_meter_2;
	phases ABCN;
	voltage_A 7200+0.0j;
	voltage_B -3600-6235j;
	voltage_C -3600+6235j;
	nominal_voltage 7200;
}

object meter:1155 {
	name R1-12-47-2_meter_3;
	phases ABCN;
	voltage_A 7200+0.0j;
	voltage_B -3600-6235j;
	voltage_C -3600+6235j;
	nominal_voltage 7200;
}

object meter:1156 {
	name R1-12-47-2_meter_4;
	phases AN;
	voltage_A 7200+0.0j;
	nominal_voltage 7200;
}

object meter:1157 {
	name R1-12-47-2_meter_5;
	phases AN;
	voltage_A 7200+0.0j;
	nominal_voltage 7200;
}

object meter:1158 {
	name R1-12-47-2_meter_6;
	phases AN;
	voltage_A 7200+0.0j;
	nominal_voltage 7200;
}

object meter:1159 {
	name R1-12-47-2_meter_7;
	phases AN;
	voltage_A 7200+0.0j;
	nominal_voltage 7200;
}

object meter:1160 {
	name R1-12-47-2_meter_8;
	phases BN;
	voltage_B -3600-6235j;
	nominal_voltage 7200;
}

object meter:1161 {
	name R1-12-47-2_meter_9;
	phases BN;
	voltage_B -3600-6235j;
	nominal_voltage 7200;
}

object meter:1162 {
	name R1-12-47-2_meter_10;
	phases ABCN;
	voltage_A 7200+0.0j;
	voltage_B -3600-6235j;
	voltage_C -3600+6235j;
	nominal_voltage 7200;
}

object meter:1163 {
	name R1-12-47-2_meter_11;
	phases AN;
	voltage_A 7200+0.0j;
	nominal_voltage 7200;
}

object meter:1164 {
	name R1-12-47-2_meter_12;
	phases AN;
	voltage_A 7200+0.0j;
	nominal_voltage 7200;
}

object meter:1165 {
	name R1-12-47-2_meter_13;
	phases AN;
	voltage_A 7200+0.0j;
	nominal_voltage 7200;
	// object recorder {
		// property voltage_A,voltage_B,voltage_C;
		// interval 60;
		// limit 1440;
		// file "meter_1165.csv";
	// };
	object complex_assert{
		target voltage_A;
		value +275.303-1.31839d;
		within 1;
	};
	object complex_assert{
		target voltage_B;
		value +0+0j;
		within 1;
	};
	object complex_assert{
		target voltage_C;
		value +0+0j;
		within 1;
	};
}

// Meter at feeder
object meter:2077 {
	name R1-12-47-2_meter_14;
	phases ABCN;
	nominal_voltage 7200; 
	voltage_A 7200+0.0j;
	voltage_B -3600-6235j;
	voltage_C -3600+6235j;
	// object recorder {
		// property voltage_A,voltage_B,voltage_C;
		// interval 60;
		// limit 1440;
		// file "meter_2077.csv";
	// };
	object complex_assert{
		target voltage_A;
		value +7199.99+0.000557429j;
		within 1;
	};
	object complex_assert{
		target voltage_B;
		value -3599.99-6234.99j;
		within 1;
	};
	object complex_assert{
		target voltage_C;
		value -3599.99+6234.99j;
		within 1;
	};
}


object node:50 {
	name R1-12-47-2_node_1;
	phases ABCN;
	voltage_A 7200+0.0j;
	voltage_B -3600-6235j;
	voltage_C -3600+6235j;
	nominal_voltage 7200;
}

object node:51 {
	name R1-12-47-2_node_2;
	phases ABCN;
	voltage_A 7200+0.0j;
	voltage_B -3600-6235j;
	voltage_C -3600+6235j;
	nominal_voltage 7200;
}

object node:52 {
	name R1-12-47-2_node_3;
	phases ABCN;
	voltage_A 7200+0.0j;
	voltage_B -3600-6235j;
	voltage_C -3600+6235j;
	nominal_voltage 7200;
}

object node:53 {
	name R1-12-47-2_node_4;
	phases ABCN;
	voltage_A 7200+0.0j;
	voltage_B -3600-6235j;
	voltage_C -3600+6235j;
	nominal_voltage 7200;
}

object node:54 {
	name R1-12-47-2_node_5;
	phases ABCN;
	voltage_A 7200+0.0j;
	voltage_B -3600-6235j;
	voltage_C -3600+6235j;
	nominal_voltage 7200;
}

object node:55 {
	name R1-12-47-2_node_6;
	phases ABCN;
	voltage_A 7200+0.0j;
	voltage_B -3600-6235j;
	voltage_C -3600+6235j;
	nominal_voltage 7200;
}

object node:56 {
	name R1-12-47-2_node_7;
	phases ABCN;
	voltage_A 7200+0.0j;
	voltage_B -3600-6235j;
	voltage_C -3600+6235j;
	nominal_voltage 7200;
}

object node:57 {
	name R1-12-47-2_node_8;
	phases AN;
	voltage_A 7200+0.0j;
	nominal_voltage 7200;
}

object node:58 {
	name R1-12-47-2_node_9;
	phases AN;
	voltage_A 7200+0.0j;
	nominal_voltage 7200;
}

object node:59 {
	name R1-12-47-2_node_10;
	phases AN;
	voltage_A 7200+0.0j;
	nominal_voltage 7200;
}

object node:60 {
	name R1-12-47-2_node_11;
	phases AN;
	voltage_A 7200+0.0j;
	nominal_voltage 7200;
}

object node:61 {
	name R1-12-47-2_node_12;
	phases AN;
	voltage_A 7200+0.0j;
	nominal_voltage 7200;
}

object node:62 {
	name R1-12-47-2_node_13;
	phases AN;
	voltage_A 7200+0.0j;
	nominal_voltage 7200;
}

object node:63 {
	name R1-12-47-2_node_14;
	phases AN;
	voltage_A 7200+0.0j;
	nominal_voltage 7200;
}

object node:64 {
	name R1-12-47-2_node_15;
	phases AN;
	voltage_A 7200+0.0j;
	nominal_voltage 7200;
}

object node:65 {
	name R1-12-47-2_node_16;
	phases AN;
	voltage_A 7200+0.0j;
	nominal_voltage 7200;
}

object node:66 {
	name R1-12-47-2_node_17;
	phases ABCN;
	voltage_A 7200+0.0j;
	voltage_B -3600-6235j;
	voltage_C -3600+6235j;
	nominal_voltage 7200;
}

object node:67 {
	name R1-12-47-2_node_18;
	phases ABCN;
	voltage_A 7200+0.0j;
	voltage_B -3600-6235j;
	voltage_C -3600+6235j;
	nominal_voltage 7200;
}

object node:68 {
	name R1-12-47-2_node_19;
	phases CN;
	voltage_C -3600+6235j;
	nominal_voltage 7200;
}

object node:69 {
	name R1-12-47-2_node_20;
	phases CN;
	voltage_C -3600+6235j;
	nominal_voltage 7200;
}

object node:70 {
	name R1-12-47-2_node_21;
	phases ABCN;
	voltage_A 7200+0.0j;
	voltage_B -3600-6235j;
	voltage_C -3600+6235j;
	nominal_voltage 7200;
}

object node:71 {
	name R1-12-47-2_node_22;
	phases BN;
	voltage_B -3600-6235j;
	nominal_voltage 7200;
}

object node:72 {
	name R1-12-47-2_node_23;
	phases BN;
	voltage_B -3600-6235j;
	nominal_voltage 7200;
}

object node:73 {
	name R1-12-47-2_node_24;
	phases ABCN;
	voltage_A 7200+0.0j;
	voltage_B -3600-6235j;
	voltage_C -3600+6235j;
	nominal_voltage 7200;
}

object node:74 {
	name R1-12-47-2_node_25;
	phases AN;
	voltage_A 7200+0.0j;
	nominal_voltage 7200;
}

object node:75 {
	name R1-12-47-2_node_26;
	phases AN;
	voltage_A 7200+0.0j;
	nominal_voltage 7200;
	// object recorder {
		// property voltage_A,voltage_B,voltage_C;
		// interval 60;
		// limit 1440;
		// file "node_75.csv";
	// };
	object complex_assert{
		target voltage_A;