//This will test the accuracy of the HVAC energy use and temperature behavior
//This test is an example of a peak cooling day
//test_HVAC_peak_cool.glm created by Andy Fisher
#set minimum_timestep=1;

module residential{
	implicit_enduses NONE;
}
module tape;
module assert;
module climate;
module powerflow;

clock{
	timezone PST+0PDT;
	starttime '2001-07-22 01:00:00';
	stoptime '2001-07-23 01:00:36';
}


object climate{
	tmyfile "WA-Yakima.tmy2";
}

schedule heatspt{
	* * * * * 60;
}

schedule coolspt{
	* * * * * 75;
}

object triplex_meter{
	nominal_voltage 120;
	phases AS;
	object house{
		system_mode OFF;
		auxiliary_strategy DEADBAND;
		heating_system_type HEAT_PUMP;
		cooling_system_type ELECTRIC;
		air_temperature 63;
		mass_temperature 63;
		heating_setpoint heatspt*1;
		cooling_setpoint coolspt*1;
		object recorder{
			property panel.energy;
			file "test_HVAC_peak_cool.csv";
			interval 1;
			limit 86451;
		};
		object complex_assert{
			target "panel.energy";
			in '2001-07-23 1:00:34';
			once ONCE_TRUE;
			value 18.532+0i;
			within 0.09266;//asserting house_e within 0.5 percent of Rob's ETP result
		};
	};
	object recorder{
		property measured_real_energy;
		file "test_HVAC_peak_cool_energy.csv";
		interval 1;
		limit 86451;
	};
	object double_assert{
		target "measured_real_energy";
		in '2001-07-23 1:00:34';
		once ONCE_TRUE;
		value 18532;
		within 92.66;//asserting house_e within 0.5 percent of Rob's ETP result
	};
}
