// $Id: test_range_opt.glm 4738 2014-07-03 00:55:39Z dchassin $
// Test standalone waterheater objects
//

clock {
	timezone PST+8PDT;
	starttime '2009-01-02 00:00:00 PST';
	stoptime '2009-01-03 00:00:00 PST';
}

#include "../Range.glm";
#set profiler=1;
#set relax_naming_rules=1;
#set randomseed=20;

module residential {
	implicit_enduses NONE;
};
module assert;
module tape;
module powerflow;

class range {
     loadshape myshape;
}

module powerflow {
     solver_method NR;
     NR_iteration_limit 50;
     //lu_solver "KLU_x64";
};

    object house {
		floor_area 2000;
		heating_setpoint 1;
		cooling_setpoint 165;
		
     object range {

          oven_volume 5;
          heating_element_capacity 1kW;
          oven_setpoint 100;
          temperature 70;
          thermostat_deadband 8;
          location INSIDE;
          oven_UA 2.9;
	  food_density 5;
	  specificheat_food 1;
	  time_oven_setting 3600;
	  queue_oven 0.85;
	  demand_oven RANGE*20;
          
         //demand 2;
			  
	//myshape "type: modulated; schedule: RANGE; energy: 2.8890 kWh; period: 180.000 s; count: 50; modulation: amplitude";
	//name direct-gpm1_R1-12-47-2_tn_252;
		  
	//oven_demand this.myshape*2;
		  
	  oven_demand 0.01;	  		  
		  
	//cooktop
		  
	   cooktop_energy_baseline 0.5 kWh;
           		  
	   cooktop_coil_setting_1 2kW;
           cooktop_coil_setting_2 1.0kW;
           cooktop_coil_setting_3 1.7kW;
           
           cooktop_interval_setting_1 240;
           cooktop_interval_setting_2 900;
           cooktop_interval_setting_3 120;
           
           time_cooktop_setting 2000;
		  
	   demand_cooktop RANGE*35;
           queue_cooktop 0.99;
           queue_min 0;
           queue_max 2;
           
           object double_assert {
	   	   	    target "total_power_oven";
	   	   	    within 0.1;
	   	   	    object player {
	   	   	    property value;
	   	   	    file ../range_output.player;
	   	   	    };
	   		};
		  
		  
		  
		  object recorder {			
			property total_power_oven,total_power_cooktop,cooktop_energy_used,time_cooktop_operation,Toff,Ton,time_oven_operation,time_oven_setting;
			interval 1;
			limit 1296020;
			file Range_Output.csv;
			};
     };
    };
