// $Id: test_dryer.glm 4738 2014-07-03 00:55:39Z dchassin $
// Test standalone dryer objects


clock {
	timezone PST+8PDT;
	starttime '2009-01-05 00:00:00 PST';
	stoptime '2009-01-06 00:00:00 PST';
}

#include "../Dryer.glm";

#set profiler=1;
#set relax_naming_rules=1;

#set randomseed=10;

module residential {
	implicit_enduses NONE;
};
module assert;
module tape;
module powerflow;

class dryer {
     loadshape myshape;
}

module powerflow {
     solver_method NR;
     NR_iteration_limit 50;
     //lu_solver "KLU_x64";
};

	object house {
		floor_area 2000;
		heating_setpoint 1;
		cooling_setpoint 165;
		
     object dryer {

          energy_baseline 3.0kWh;  
	  
	  controls_power 10W;
          motor_power 200W;
          dryer_coil_power 5800W;

	    //myshape "type: modulated; schedule: DRYER; energy: 2.8890 kWh; period: 90.000 s; count: 6; modulation: amplitude";
	  
	      name direct-gpm1_R1-12-47-2_tn_252;
		  
	    //daily_dryer_demand this.myshape*0.3912363;
		  
	  daily_dryer_demand DRYER*10;	  		  
	  
	  queue 0.8;
		  
	  queue_min 0;
	  
	  queue_max 2;
	      
	      
	  object double_assert {
	      	target "total_power";
	      	within 0.1;
	      	object player {
	      		property value;
	      		file ../dryer_output.player;
	      		};
		};
				  
		  object recorder
		  {
			property total_power,energy_used,energy_needed,dryer_demand,next_t,queue,dryer_run_prob;
			interval 1;
			limit 70272000;
			file Dryer_output.csv;
		  };
     };
    };
