//This will test the accuracy of the HVAC energy use and temperature behavior
//This test is an example of a common heating day
//test_HVAC_common_heat.glm created by Andy Fisher
#set minimum_timestep=1;

module residential{
	implicit_enduses NONE;
}
module tape;
module assert;
module climate;
module powerflow;

clock{
	timezone PST+8PDT;
	starttime '2001-02-16 00:00:00';
	stoptime '2001-02-17 00:00:03';
}


object climate{
	tmyfile "../WA-Yakima.tmy2";
}

schedule heatspt{
	* * * * * 60;
}

schedule coolspt{
	* * * * * 75;
}

object triplex_meter{
	nominal_voltage 120;
	phases AS;
	object house{
		system_mode OFF;
		auxiliary_strategy DEADBAND;
		heating_system_type HEAT_PUMP;
		cooling_system_type ELECTRIC;
		air_temperature 60;
		mass_temperature 60;
		heating_setpoint heatspt*1;
		cooling_setpoint coolspt*1;
		object recorder{
			property panel.energy;
			file "test_HVAC_common_heat.csv";
			interval 1;
			limit 86441;
		};
		object complex_assert{
			target "panel.energy";
			in '2001-02-17 0:00:01';
			once ONCE_TRUE;
			value 29.778+0i;
			within 0.14889;//asserting house_e within 0.5 percent of Rob's ETP result
		};
	};
	object recorder{
		property measured_real_energy;
		file "test_HVAC_common_heat_energy.csv";
		interval 1;
		limit 86441;
	};
	object double_assert{
		target "measured_real_energy";
		in '2001-02-17 0:00:01';
		once ONCE_TRUE;
		value 29778;
		within 148.89;//asserting house_e within 0.5 percent of Rob's ETP result
	};
}
