// Exercise 5.2.1

module tape;
module residential;
module powerflow;
module climate;

clock {
	timezone PST+8PDT;
	// starttime '2001-01-01 00:00:00';
	// stoptime '2001-01-08 00:00:00';
	starttime '2001-07-01 00:00:00';
	stoptime '2001-07-08 00:00:00';
}

object climate {
	tmyfile "../WA-Yakima.tmy2";
}

object triplex_meter {
	phases AS;
	nominal_voltage 120;
	object house {
		system_mode OFF;
		auxiliary_strategy DEADBAND;
		auxiliary_system_type ELECTRIC;
		heating_system_type HEAT_PUMP;
		cooling_system_type ELECTRIC;
		air_temperature 60.0;
		mass_temperature 60.0;
		heating_setpoint 65;
		cooling_setpoint 75;
		number_of_stories 1;
		window_wall_ratio 0.07;
		heating_COP 1.00;
		object recorder {
			property total_load;
			file "exercise_5_2_1.csv";
			interval 3600;
			limit 168;
		};
	};
}