//This will test the accuracy of the thermal storage energy use and temperature behavior
//This test is an example of a peak cooling day
//test_thermal_storage_autotest.glm created by Chris Bonebrake
#set minimum_timestep=1;
//#set pauseatexit=1;

module residential{
	implicit_enduses NONE;
}
module tape;
module assert;
module climate;
module powerflow;

clock{
	timezone PST+8PDT;
	starttime '2001-07-22 01:00:00';
	stoptime '2001-07-23 01:00:00';
}

schedule zippwr {
	* 0-5 * * * .29307107017222;
	* 6 * * * 0.58614214034444;
	* 7-9 * * * 0.87921321051666;
	* 10-15 * * * 0.58614214034444;
	* 16 * * * 0.87921321051666;
	* 17 * * * 1.1722842806889;
	* 18-20 * * * 1.4653553508611;
	* 21 * * * 1.1722842806889;
	* 22 * * * 0.58614214034444;
	* 23 * * * .29307107017222;
}

object climate{
	tmyfile "../WA-Yakima.tmy2";
	interpolate QUADRATIC;
}

schedule heatspt{
	* * * * * 60;
}

schedule coolspt{
	* * * * * 75;
}

class player {
	double value;
}

object player {
	name TSenergy;
	file "../test_thermal_storage_energy.player";
	loop 1;
}

object triplex_meter{
	nominal_voltage 120;
	phases AS;
	object house{
		window_wall_ratio 0.07;
		cooling_COP 3.0;
		system_mode OFF;
		auxiliary_strategy DEADBAND;
		heating_system_type HEAT_PUMP;
		cooling_system_type ELECTRIC;
		air_temperature 63.3;
		mass_temperature 63.3;
		heating_setpoint heatspt*1;
		cooling_setpoint coolspt*1;
		object ZIPload {
			heat_fraction 1;
			base_power zippwr*1;		
			power_pf 1;
			power_fraction 1;
			current_pf 0;
			current_fraction 0;
			impedance_pf 0;
			impedance_fraction 0;
		};
		object thermal_storage{
			SOC 50;
			k 0.024;
			object double_assert{
				target "SOC";
				object player{
					property value;
					file "../test_thermal_storage_SOC.player";
					loop 1;
				};
				within 0.5; //asserting within 0.5%
			};
		};
	};

	object double_assert{
		target "measured_real_energy";
		value TSenergy.value*1;
		within 5;
	};
}