

#set minimum_timestep=1;

module residential {
	implicit_enduses NONE;
}
module tape;
module assert;
module powerflow;



clock{
	timezone PST+8PDT;
	starttime '2000-01-01 00:00:00';
	stoptime '2000-01-02 00:00:00';
}

schedule zip_power {
		0-14 0 * * * 70.0000;
		15-29 0 * * * 70.3175;
		30-44 0 * * * 70.6349;
		45-59 0 * * * 70.9524;
		0-14 1 * * * 71.2698;
		15-29 1 * * * 71.5873;
		30-44 1 * * * 71.9048;
		45-59 1 * * * 72.2222;
		0-14 2 * * * 72.5397;
		15-29 2 * * * 72.8571;
		30-44 2 * * * 73.1746;
		45-59 2 * * * 73.4921;
		0-14 3 * * * 73.8095;
		15-29 3 * * * 74.1270;
		30-44 3 * * * 74.4444;
		45-59 3 * * * 74.7619;
		0-14 4 * * * 75.0794;
		15-29 4 * * * 75.3968;
		30-44 4 * * * 75.7143;
		45-59 4 * * * 76.0317;
		0-14 5 * * * 76.3492;
		15-29 5 * * * 76.6667;
		30-44 5 * * * 76.9841;
		45-59 5 * * * 77.3016;
		0-14 6 * * * 77.6190;
		15-29 6 * * * 77.9365;
		30-44 6 * * * 78.2540;
		45-59 6 * * * 78.5714;
		0-14 7 * * * 78.8889;
		15-29 7 * * * 79.2063;
		30-44 7 * * * 79.5238;
		45-59 7 * * * 79.5238;
		0-14 8 * * * 79.8413;
		15-29 8 * * * 79.8413;
		30-44 8 * * * 80.1587;
		45-59 8 * * * 80.1587;
		0-14 9 * * * 80.4762;
		15-29 9 * * * 80.4762;
		30-44 9 * * * 80.7937;
		45-59 9 * * * 80.7937;
		0-14 10 * * * 81.1111;
		15-29 10 * * * 81.1111;
		30-44 10 * * * 81.4286;
		45-59 10 * * * 81.4286;
		0-14 11 * * * 81.7460;
		15-29 11 * * * 81.7460;
		30-44 11 * * * 82.0635;
		45-59 11 * * * 82.0635;
		0-14 12 * * * 82.3810;
		15-29 12 * * * 82.3810;
		30-44 12 * * * 82.6984;
		45-59 12 * * * 82.6984;
		0-14 13 * * * 83.0159;
		15-29 13 * * * 83.0159;
		30-44 13 * * * 83.3333;
		45-59 13 * * * 83.3333;
		0-14 14 * * * 83.6508;
		15-29 14 * * * 83.6508;
		30-44 14 * * * 83.9683;
		45-59 14 * * * 83.9683;
		0-14 15 * * * 84.2857;
		15-29 15 * * * 84.2857;
		30-44 15 * * * 84.6032;
		45-59 15 * * * 84.6032;
		0-14 16 * * * 84.9206;
		15-29 16 * * * 84.9206;
		30-44 16 * * * 85.2381;
		45-59 16 * * * 85.2381;
		0-14 17 * * * 85.5556;
		15-29 17 * * * 85.5556;
		30-44 17 * * * 85.8730;
		45-59 17 * * * 85.8730;
		0-14 18 * * * 86.1905;
		15-29 18 * * * 86.1905;
		30-44 18 * * * 86.5079;
		45-59 18 * * * 86.5079;
		0-14 19 * * * 86.8254;
		15-29 19 * * * 86.8254;
		30-44 19 * * * 87.1429;
		45-59 19 * * * 87.1429;
		0-14 20 * * * 87.4603;
		15-29 20 * * * 87.4603;
		30-44 20 * * * 87.7778;
		45-59 20 * * * 87.7778;
		0-14 21 * * * 88.0952;
		15-29 21 * * * 88.0952;
		30-44 21 * * * 88.4127;
		45-59 21 * * * 88.4127;
		0-14 22 * * * 88.7302;
		15-29 22 * * * 88.7302;
		30-44 22 * * * 89.0476;
		45-59 22 * * * 89.0476;
		0-14 23 * * * 89.3651;
		15-29 23 * * * 89.3651;
		30-44 23 * * * 89.6825;
		45-59 23 * * * 89.6825;
}

	

object triplex_meter {
	name PHASE_A;
	phases AS;
	nominal_voltage 120;
	object house {
		system_mode OFF;
		auxiliary_strategy DEADBAND;
		auxiliary_system_type NONE;
		heating_system_type RESISTANCE;
		cooling_system_type ELECTRIC;
		air_temperature 60.0;
		mass_temperature 60.2;
		heating_setpoint 70;
		cooling_setpoint 75;
		number_of_stories 2;
		window_wall_ratio 0.07;
		heating_COP 1.00;
		object ZIPload {
			heat_fraction 1;
			base_power zip_power*1+1;		
			power_pf 1;
			power_fraction 1;
			current_pf 0;
			current_fraction 0;
			impedance_pf 0;
			impedance_fraction 0;
			object recorder{
				property base_power;
				file "base_power.csv";
				interval 900;
				limit 96;
			};
			object double_assert{
				target base_power;
				status ASSERT_TRUE;
				within 1e-4;
				object player{
					property value;
					file "../test_core_63_schedule.player";
				};
			};
		};
	};
}
 	  	 
