// $Id: test_SPCT_XFMR.glm 4738 2014-07-03 00:55:39Z dchassin $
//
// Powerflow module self-test

#set include="../../core"
#include "../../core/rt/msvc_debugger.glm"

#include "assert.glm"

clock {
	timezone EST+5EDT;
	starttime '2000-01-01 00:00:00 EST';
}

module powerflow;

///////////////////////////////////////////////////////
// test 4: SINGLE_PHASE_CENTER_TAPPED TRANSFORMER
///////////////////////////////////////////////////////
// AS

object transformer {
	phases AN;	
	configuration object transformer_configuration {
		connect_type SINGLE_PHASE_CENTER_TAPPED;
		install_type POLETOP;
		primary_voltage 7200 V;
		secondary_voltage 120 V;
		//kVA_rating 50;
		powerA_rating 50;
		resistance 0.011;
		reactance 0.018;
	};
	from object node {
		name SPCT_fAN;
		phases AN;
		voltage_A 7200 + 0j;	
		nominal_voltage 7200;
		
	};
	to object triplex_node {
		name SPCT_tAS;
		phases AS;
		voltage_1 120 + 0j;		
		voltage_2 120 + 0j;
		voltage_N 0;
		//current_1  1;
		power_1 1000+2000j;	
		shunt_1 5.3333e-004 -2.6667e-004i;
		nominal_voltage 120;
	};
	object double_assert {
		target "power_out";
		value 2242.9;
		within 0.1;
	};		
	object double_assert {
		target "power_in";
		value 2245.6;
		within 0.1;
	};	
};


// BS

object transformer {
	phases BN;	
	configuration object transformer_configuration {
		connect_type SINGLE_PHASE_CENTER_TAPPED;
		install_type POLETOP;
		primary_voltage 7200 V;
		secondary_voltage 120 V;
		//kVA_rating 50;
		powerB_rating 50;
		resistance 0.011;
		reactance 0.018;
	};
	from object node {
		name SPCT_fBN;
		phases BN;
		voltage_B -3600 - 6235.4j;	
		nominal_voltage 7200;
		
	};
	to object triplex_node {
		name SPCT_tBS;
		phases BS;
		voltage_1 -60 - 103.92j;
		voltage_2 -60 - 103.92j;
		voltage_N 0;
		//current_1  1;
		power_1 1000+2000j;	
		shunt_1 5.3333e-004 -2.6667e-004i;
		nominal_voltage 120;
	};
	object double_assert {	
		target "power_out";
		value 2242.9;
		within 0.1;
	};
	object double_assert {	
		target "power_in";
		value 2245.6;
		within 0.1;
	};
};


// CS

object transformer {
	phases CN;	
	configuration object transformer_configuration {
		connect_type SINGLE_PHASE_CENTER_TAPPED;
		install_type POLETOP;
		primary_voltage 7200 V;
		secondary_voltage 120 V;
		//kVA_rating 50;
		powerC_rating 50;
		resistance 0.011;
		reactance 0.018;
	};
	from object node {
		name SPCT_fCN;
		phases CN;
		voltage_C -3600 + 6235.4j;	
		nominal_voltage 7200;		
	};
	to object triplex_node {
		name SPCT_tCS;
		phases CS;
		voltage_1 -60 + 103.92j;
		voltage_2 -60 + 103.92j;
		voltage_N 0;
		//current_1  1;
		power_1 1000+2000j;	
		shunt_1 5.3333e-004 -2.6667e-004i;	
		nominal_voltage 120;
	};
	object double_assert {	
		target "power_out";
		value 2242.9;
		within 0.1;
	};	
	object double_assert {	
		target "power_in";
		value  2245.6;
		within 0.1;
	};	
};
