clock {
     timezone CST+6CDT;
     timestamp '2013-07-14 00:00:00';
     stoptime '2013-07-21 00:00:01';
}

#set profiler=1;
#set double_format=%+.12lg
#set randomseed=10;
#set relax_naming_rules=1;
#include "../water_and_setpoint_schedule_v3.glm";

#include "../appliance_schedules.glm";

module tape;
module climate;
module residential {
     implicit_enduses NONE;
};
module powerflow {
     solver_method FBS;
     NR_iteration_limit 100;
};

class player {
     double value;
}
object csv_reader {
     name CSVREADER;
     filename "../MN-Minneapolis.csv";
}

object climate {
     name "Minneapolis MN";
     tmyfile "../MN-Minneapolis.csv";
     reader CSVREADER;
};

object transformer_configuration {
     name substation_config;
     connect_type WYE_WYE;
     install_type PADMOUNT;
     primary_voltage 7200 V;
     secondary_voltage 7200 V;
     power_rating 1500;
     powerA_rating 500;
     powerB_rating 500;
     powerC_rating 500;
     impedance 0.0015+0.00675j;
}

object transformer_configuration {
     name default_transformer_A;
     connect_type SINGLE_PHASE_CENTER_TAPPED;
     install_type PADMOUNT;
     primary_voltage 7200 V;
     secondary_voltage 124 V;
     power_rating 500;
     powerA_rating 500;
     impedance 0.015+0.0675j;
}

object transformer_configuration {
     name default_transformer_B;
     connect_type SINGLE_PHASE_CENTER_TAPPED;
     install_type PADMOUNT;
     primary_voltage 7200 V;
     secondary_voltage 124 V;
     power_rating 500;
     powerB_rating 500;
     impedance 0.015+0.0675j;
}

object transformer_configuration {
     name default_transformer_C;
     connect_type SINGLE_PHASE_CENTER_TAPPED;
     install_type PADMOUNT;
     primary_voltage 7200 V;
     secondary_voltage 124 V;
     power_rating 500;
     powerC_rating 500;
     impedance 0.015+0.0675j;
}

object triplex_line_conductor {
     name Name_1_0_AA_triplex;
     resistance 0.57;
     geometric_mean_radius 0.0111;
}

object triplex_line_configuration {
     name TLCFG;
     conductor_1 Name_1_0_AA_triplex;
     conductor_2 Name_1_0_AA_triplex;
     conductor_N Name_1_0_AA_triplex;
     insulation_thickness 0.08;
     diameter 0.368;
}

object meter {
     bustype SWING;
     name ROOT;
     phases ABCN;
     nominal_voltage 7200;
}

object transformer {
     phases ABCN;
     groupid _Network_Trans;
     name _Transformer1;
     from ROOT;
     to _transformer_meter;
     configuration substation_config;
}

object meter {
     name _transformer_meter;
     phases ABCN;
     nominal_voltage 7200;
}

object transformer {
     name _center_tap_transformer_A;
     phases AS;
     from _transformer_meter;
     to _triplex_node_A;
     configuration default_transformer_A;
}

object transformer {
     name _center_tap_transformer_B;
     phases BS;
     from _transformer_meter;
     to _triplex_node_B;
     configuration default_transformer_B;
}

object transformer {
     name _center_tap_transformer_C;
     phases CS;
     from _transformer_meter;
     to _triplex_node_C;
     configuration default_transformer_C;
}

object triplex_meter {
     name _triplex_node_A;
     phases AS;
     nominal_voltage 124.00;
}

object triplex_meter {
     name _triplex_node_B;
     phases BS;
     nominal_voltage 124.00;
}

object triplex_meter {
     name _triplex_node_C;
     phases CS;
     nominal_voltage 124.00;
}

object triplex_line {
     from _triplex_node_A;
     to _tpm_flatrate_A1;
     groupid _Triplex_Line;
     phases AS;
     length 10;
     configuration TLCFG;
}

object triplex_meter {
     nominal_voltage 124;
     phases AS;
     name _tpm_flatrate_A1;
     groupid _flatrate_meter;
}

object triplex_meter {
     nominal_voltage 124;
     phases AS;
     name _tpm_rt_A1;
     groupid _rt_meter;
     parent _tpm_flatrate_A1;
}

object house {
     name F1_H_1;
     //Residential_2
     parent _tpm_rt_A1;
     schedule_skew -685;
     Rroof 33.69;
     Rwall 17.71;
     Rfloor 17.02;
     Rdoors 5;
     Rwindows 1.81;
     airchange_per_hour 0.80;
     hvac_power_factor 0.97;
     cooling_system_type ELECTRIC;
     heating_system_type GAS;
     fan_type ONE_SPEED;
     hvac_breaker_rating 200;
     total_thermal_mass_per_floor_area 3.01;
     motor_efficiency AVERAGE;
     motor_model BASIC;
     cooling_COP 3.90;
     floor_area 1040;
     number_of_doors 2;
     air_temperature 71.9;
     mass_temperature 71.9;
     cooling_setpoint cooling4*1.035+3.08;
     heating_setpoint heating7*0.985+2.01;
     object ZIPload {
          schedule_skew -685;
          base_power LIGHTS*0.8709;
          power_fraction 0.000000;
          impedance_fraction 1.000000;
          current_fraction 0.000000;
          power_pf 0.000;
          current_pf 0.000;
          impedance_pf 1.000;
          heat_fraction 0.70;
     };
     object ZIPload {
          schedule_skew -685;
          base_power CLOTHESWASHER*0.7763;
          power_fraction 1.000000;
          impedance_fraction 0.000000;
          current_fraction 0.000000;
          power_pf 0.970;
          current_pf 0.970;
          impedance_pf 0.970;
          heat_fraction 0.86;
     };
     object ZIPload {
          schedule_skew -685;
          base_power REFRIGERATOR*1.0019;
          power_fraction 1.000000;
          impedance_fraction 0.000000;
          current_fraction 0.000000;
          power_pf 0.970;
          current_pf 0.970;
          impedance_pf 0.970;
          heat_fraction 0.77;
     };
     object ZIPload {
          schedule_skew -685;
          base_power DRYER*0.9110;
          power_fraction 0.100000;
          impedance_fraction 0.800000;
          current_fraction 0.100000;
          power_pf 0.900;
          current_pf 0.900;
          impedance_pf 1.000;
          heat_fraction 0.80;
     };
     object ZIPload {
          schedule_skew -685;
          base_power FREEZER*1.0590;
          power_fraction 1.000000;
          impedance_fraction 0.000000;
          current_fraction 0.000000;
          power_pf 0.970;
          current_pf 0.970;
          impedance_pf 0.970;
          heat_fraction 0.86;
     };
     object ZIPload {
          schedule_skew -685;
          base_power RANGE*0.6381;
          power_fraction 0.000000;
          impedance_fraction 1.000000;
          current_fraction 0.000000;
          power_pf 0.000;
          current_pf 0.000;
          impedance_pf 1.000;
          heat_fraction 0.94;
     };
     object ZIPload {
          schedule_skew -685;
          base_power MICROWAVE*1.0063;
          power_fraction 1.000000;
          impedance_fraction 0.000000;
          current_fraction 0.000000;
          power_pf 0.970;
          current_pf 0.970;
          impedance_pf 0.970;
          heat_fraction 0.67;
     };
     object waterheater {
          location INSIDE;
          schedule_skew -685;
          demand new_small_2*1.131;
          tank_volume 42.2;
          tank_UA 1.919;
          heating_element_capacity 4100 W;
          tank_setpoint 124.47;
          temperature 125.29;
          thermostat_deadband 1.886;
     };
}

object triplex_line {
     from _triplex_node_A;
     to _tpm_flatrate_A2;
     groupid _Triplex_Line;
     phases AS;
     length 10;
     configuration TLCFG;
}

object triplex_meter {
     nominal_voltage 124;
     phases AS;
     name _tpm_flatrate_A2;
     groupid _flatrate_meter;
}

object triplex_meter {
     nominal_voltage 124;
     phases AS;
     name _tpm_rt_A2;
     groupid _rt_meter;
     parent _tpm_flatrate_A2;
}

object house {
     name F1_H_2;
     //Residential_3
     parent _tpm_rt_A2;
     schedule_skew 2347;
     Rroof 22.83;
     Rwall 10.37;
     Rfloor 11.55;
     Rdoors 3;
     Rwindows 1.04;
     airchange_per_hour 1.14;
     hvac_power_factor 0.97;
     cooling_system_type ELECTRIC;
     heating_system_type GAS;
     fan_type ONE_SPEED;
     hvac_breaker_rating 200;
     total_thermal_mass_per_floor_area 4.56;
     motor_efficiency AVERAGE;
     motor_model BASIC;
     cooling_COP 2.77;
     floor_area 3092;
     number_of_doors 4;
     air_temperature 70.6;
     mass_temperature 70.6;
     cooling_setpoint cooling4*1.027+3.97;
     heating_setpoint heating6*1.001+1.92;
     object ZIPload {
          schedule_skew 2347;
          base_power LIGHTS*2.1914;
          power_fraction 0.600000;
          impedance_fraction 0.400000;
          current_fraction 0.000000;
          power_pf -0.780;
          current_pf 0.420;
          impedance_pf -0.880;
          heat_fraction 0.78;
     };
     object ZIPload {
          schedule_skew 2347;
          base_power CLOTHESWASHER*1.2906;
          power_fraction 1.000000;
          impedance_fraction 0.000000;
          current_fraction 0.000000;
          power_pf 0.970;
          current_pf 0.970;
          impedance_pf 0.970;
          heat_fraction 0.86;
     };
     object ZIPload {
          schedule_skew 2347;
          base_power REFRIGERATOR*0.8346;
          power_fraction 1.000000;
          impedance_fraction 0.000000;
          current_fraction 0.000000;
          power_pf 0.970;
          current_pf 0.970;
          impedance_pf 0.970;
          heat_fraction 0.78;
     };
     object ZIPload {
          schedule_skew 2347;
          base_power DRYER*1.0415;
          power_fraction 0.100000;
          impedance_fraction 0.800000;
          current_fraction 0.100000;
          power_pf 0.900;
          current_pf 0.900;
          impedance_pf 1.000;
          heat_fraction 0.81;
     };
     object ZIPload {
          schedule_skew 2347;
          base_power FREEZER*1.3973;
          power_fraction 1.000000;
          impedance_fraction 0.000000;
          current_fraction 0.000000;
          power_pf 0.970;
          current_pf 0.970;
          impedance_pf 0.970;
          heat_fraction 0.90;
     };
     object ZIPload {
          schedule_skew 2347;
          base_power RANGE*0.7729;
          power_fraction 0.000000;
          impedance_fraction 1.000000;
          current_fraction 0.000000;
          power_pf 0.000;
          current_pf 0.000;
          impedance_pf 1.000;
          heat_fraction 0.87;
     };
     object ZIPload {
          schedule_skew 2347;
          base_power MICROWAVE*0.7195;
          power_fraction 1.000000;
          impedance_fraction 0.000000;
          current_fraction 0.000000;
          power_pf 0.970;
          current_pf 0.970;
          impedance_pf 0.970;
          heat_fraction 0.93;
     };
     object waterheater {
          location INSIDE;
          schedule_skew 2347;
          demand old_large_4*1.018;
          tank_volume 51.2;
          tank_UA 2.157;
          heating_element_capacity 4809 W;
          tank_setpoint 129.10;
          temperature 129.15;
          thermostat_deadband 1.819;
     };
}

object triplex_line {
     from _triplex_node_A;
     to _tpm_flatrate_A3;
     groupid _Triplex_Line;
     phases AS;
     length 10;
     configuration TLCFG;
}

object triplex_meter {
     nominal_voltage 124;
     phases AS;
     name _tpm_flatrate_A3;
     groupid _flatrate_meter;
}

object triplex_meter {
     nominal_voltage 124;
     phases AS;
     name _tpm_rt_A3;
     groupid _rt_meter;
     parent _tpm_flatrate_A3;
}

object house {
     name F1_H_3;
     //Residential_3
     parent _tpm_rt_A3;
     schedule_skew 683;
     Rroof 16.16;
     Rwall 9.24;
     Rfloor 11.16;
     Rdoors 3;
     Rwindows 0.75;
     airchange_per_hour 1.15;
     hvac_power_factor 0.97;
     cooling_system_type ELECTRIC;
     heating_system_type GAS;
     fan_type ONE_SPEED;
     hvac_breaker_rating 200;
     total_thermal_mass_per_floor_area 3.04;
     motor_efficiency AVERAGE;
     motor_model BASIC;
     cooling_COP 3.50;
     floor_area 3893;
     number_of_doors 4;
     air_temperature 70.9;
     mass_temperature 70.9;
     cooling_setpoint cooling6*0.971+5.83;
     heating_setpoint heating5*0.983+2.97;
     object ZIPload {
          schedule_skew 683;
          base_power LIGHTS*1.4594;
          power_fraction 0.600000;
          impedance_fraction 0.400000;
          current_fraction 0.000000;
          power_pf -0.780;
          current_pf 0.420;
          impedance_pf -0.880;
          heat_fraction 0.94;
     };
     object ZIPload {
          schedule_skew 683;
          base_power CLOTHESWASHER*1.2580;
          power_fraction 1.000000;
          impedance_fraction 0.000000;
          current_fraction 0.000000;
          power_pf 0.970;
          current_pf 0.970;
          impedance_pf 0.970;
          heat_fraction 0.80;
     };
     object ZIPload {
          schedule_skew 683;
          base_power REFRIGERATOR*1.1192;
          power_fraction 1.000000;
          impedance_fraction 0.000000;
          current_fraction 0.000000;
          power_pf 0.970;
          current_pf 0.970;
          impedance_pf 0.970;
          heat_fraction 0.76;
     };
     object ZIPload {
          schedule_skew 683;
          base_power DRYER*0.8680;
          power_fraction 0.100000;
          impedance_fraction 0.800000;
          current_fraction 0.100000;
          power_pf 0.900;
          current_pf 0.900;
          impedance_pf 1.000;
          heat_fraction 0.66;
     };
     object ZIPload {
          schedule_skew 683;
          base_power FREEZER*1.2724;
          power_fraction 1.000000;
          impedance_fraction 0.000000;
          current_fraction 0.000000;
          power_pf 0.970;
          current_pf 0.970;
          impedance_pf 0.970;
          heat_fraction 0.79;
     };
     object ZIPload {
          schedule_skew 683;
          base_power RANGE*1.0231;
          power_fraction 0.000000;
          impedance_fraction 1.000000;
          current_fraction 0.000000;
          power_pf 0.000;
          current_pf 0.000;
          impedance_pf 1.000;
          heat_fraction 0.93;
     };
     object ZIPload {
          schedule_skew 683;
          base_power MICROWAVE*1.3642;
          power_fraction 1.000000;
          impedance_fraction 0.000000;
          current_fraction 0.000000;
          power_pf 0.970;
          current_pf 0.970;
          impedance_pf 0.970;
          heat_fraction 0.94;
     };
     object waterheater {
          groupid fwh;
          location INSIDE;
          schedule_skew 683;
          demand old_large_5*1.131;
          tank_volume 80;
          dr_signal 1;
          fortran_sim_time 60;
          operating_mode 1;
          waterheater_model FORTRAN;
          tank_setpoint 125.006;
          thermostat_deadband 4.05;
     };
}

object triplex_line {
     from _triplex_node_A;
     to _tpm_flatrate_A4;
     groupid _Triplex_Line;
     phases AS;
     length 10;
     configuration TLCFG;
}

object triplex_meter {
     nominal_voltage 124;
     phases AS;
     name _tpm_flatrate_A4;
     groupid _flatrate_meter;
}

object triplex_meter {
     nominal_voltage 124;
     phases AS;
     name _tpm_rt_A4;
     groupid _rt_meter;
     parent _tpm_flatrate_A4;
}

object house {
     name F1_H_4;
     //Residential_1
     parent _tpm_rt_A4;
     schedule_skew 1264;
     Rroof 22.61;
     Rwall 9.10;
     Rfloor 10.29;
     Rdoors 3;
     Rwindows 1.11;
     airchange_per_hour 1.09;
     hvac_power_factor 0.97;
     cooling_system_type ELECTRIC;
     heating_system_type GAS;
     fan_type ONE_SPEED;
     hvac_breaker_rating 200;
     total_thermal_mass_per_floor_area 4.23;
     motor_efficiency AVERAGE;
     motor_model BASIC;
     cooling_COP 2.98;
     floor_area 844;
     number_of_doors 1;
     air_temperature 68.2;
     mass_temperature 68.2;
     cooling_setpoint cooling8*0.968+4.25;
     heating_setpoint heating4*0.975+2.07;
     object ZIPload {
          schedule_skew 1264;
          base_power LIGHTS*0.7794;
          power_fraction 0.600000;
          impedance_fraction 0.400000;
          current_fraction 0.000000;
          power_pf -0.780;
          current_pf 0.420;
          impedance_pf -0.880;
          heat_fraction 0.96;
     };
     object ZIPload {
          schedule_skew 1264;
          base_power CLOTHESWASHER*0.9743;
          power_fraction 1.000000;
          impedance_fraction 0.000000;
          current_fraction 0.000000;
          power_pf 0.970;
          current_pf 0.970;
          impedance_pf 0.970;
          heat_fraction 0.66;
     };
     object ZIPload {
          schedule_skew 1264;
          base_power REFRIGERATOR*0.8633;
          power_fraction 1.000000;
          impedance_fraction 0.000000;
          current_fraction 0.000000;
          power_pf 0.970;
          current_pf 0.970;
          impedance_pf 0.970;
          heat_fraction 0.78;
     };
     object ZIPload {
          schedule_skew 1264;
          base_power DRYER*0.5780;
          power_fraction 0.100000;
          impedance_fraction 0.800000;
          current_fraction 0.100000;
          power_pf 0.900;
          current_pf 0.900;
          impedance_pf 1.000;
          heat_fraction 0.86;
     };
     object ZIPload {
          schedule_skew 1264;
          base_power RANGE*0.5336;
          power_fraction 0.000000;
          impedance_fraction 1.000000;
          current_fraction 0.000000;
          power_pf 0.000;
          current_pf 0.000;
          impedance_pf 1.000;
          heat_fraction 0.93;
     };
     object ZIPload {
          schedule_skew 1264;
          base_power MICROWAVE*0.5350;
          power_fraction 1.000000;
          impedance_fraction 0.000000;
          current_fraction 0.000000;
          power_pf 0.970;
          current_pf 0.970;
          impedance_pf 0.970;
          heat_fraction 0.70;
     };
     object waterheater {
          groupid fwh;
          location GARAGE;
          schedule_skew 1264;
          demand old_small_2*1.130;
          tank_volume 80;
          dr_signal 1;
          fortran_sim_time 60;
          operating_mode 1;
          waterheater_model FORTRAN;
          tank_setpoint 125.006;
          thermostat_deadband 4.05;
     };
}

object triplex_line {
     from _triplex_node_A;
     to _tpm_flatrate_A5;
     groupid _Triplex_Line;
     phases AS;
     length 10;
     configuration TLCFG;
}

object triplex_meter {
     nominal_voltage 124;
     phases AS;
     name _tpm_flatrate_A5;
     groupid _flatrate_meter;
}

object triplex_meter {
     nominal_voltage 124;
     phases AS;
     name _tpm_rt_A5;
     groupid _rt_meter;
     parent _tpm_flatrate_A5;
}

object house {
     name F1_H_5;
     //Residential_1
     parent _tpm_rt_A5;
     schedule_skew 384;
     Rroof 15.71;
     Rwall 9.23;
     Rfloor 11.62;
     Rdoors 3;
     Rwindows 1.51;
     airchange_per_hour 0.82;
     hvac_power_factor 0.97;
     cooling_system_type ELECTRIC;
     heating_system_type GAS;
     fan_type ONE_SPEED;
     hvac_breaker_rating 200;
     total_thermal_mass_per_floor_area 3.06;
     motor_efficiency AVERAGE;
     motor_model BASIC;
     cooling_COP 3.69;
     floor_area 1011;
     number_of_doors 2;
     air_temperature 70.7;
     mass_temperature 70.7;
     cooling_setpoint cooling3*0.989+3.30;
     heating_setpoint heating5*1.050+2.38;
     object ZIPload {
          schedule_skew 384;
          base_power LIGHTS*1.6953;
          power_fraction 0.000000;
          impedance_fraction 1.000000;
          current_fraction 0.000000;
          power_pf 0.000;
          current_pf 0.000;
          impedance_pf 1.000;
          heat_fraction 0.73;
     };
     object ZIPload {
          schedule_skew 384;
          base_power CLOTHESWASHER*1.1499;
          power_fraction 1.000000;
          impedance_fraction 0.000000;
          current_fraction 0.000000;
          power_pf 0.970;
          current_pf 0.970;
          impedance_pf 0.970;
          heat_fraction 0.75;
     };
     object ZIPload {
          schedule_skew 384;
          base_power REFRIGERATOR*0.9335;
          power_fraction 1.000000;
          impedance_fraction 0.000000;
          current_fraction 0.000000;
          power_pf 0.970;
          current_pf 0.970;
          impedance_pf 0.970;
          heat_fraction 0.92;
     };
     object ZIPload {
          schedule_skew 384;
          base_power DRYER*0.8129;
          power_fraction 0.100000;
          impedance_fraction 0.800000;
          current_fraction 0.100000;
          power_pf 0.900;
          current_pf 0.900;
          impedance_pf 1.000;
          heat_fraction 0.65;
     };
     object ZIPload {
          schedule_skew 384;
          base_power RANGE*0.5813;
          power_fraction 0.000000;
          impedance_fraction 1.000000;
          current_fraction 0.000000;
          power_pf 0.000;
          current_pf 0.000;
          impedance_pf 1.000;
          heat_fraction 0.81;
     };
     object ZIPload {
          schedule_skew 384;
          base_power MICROWAVE*1.0386;
          power_fraction 1.000000;
          impedance_fraction 0.000000;
          current_fraction 0.000000;
          power_pf 0.970;
          current_pf 0.970;
          impedance_pf 0.970;
          heat_fraction 0.91;
     };
     object waterheater {
          location INSIDE;
          schedule_skew 384;
          demand old_small_4*1.123;
          tank_volume 49.6;
          tank_UA 2.167;
          heating_element_capacity 4991 W;
          tank_setpoint 121.00;
          temperature 121.46;
          thermostat_deadband 2.004;
     };
}

object triplex_line {
     from _triplex_node_A;
     to _tpm_flatrate_A6;
     groupid _Triplex_Line;
     phases AS;
     length 10;
     configuration TLCFG;
}

object triplex_meter {
     nominal_voltage 124;
     phases AS;
     name _tpm_flatrate_A6;
     groupid _flatrate_meter;
}

object triplex_meter {
     nominal_voltage 124;
     phases AS;
     name _tpm_rt_A6;
     groupid _rt_meter;
     parent _tpm_flatrate_A6;
}

object house {
     name F1_H_6;
     //Residential_2
     parent _tpm_rt_A6;
     schedule_skew -580;
     Rroof 27.65;
     Rwall 20.36;
     Rfloor 14.67;
     Rdoors 5;
     Rwindows 2.14;
     airchange_per_hour 1.09;
     hvac_power_factor 0.97;
     cooling_system_type ELECTRIC;
     heating_system_type GAS;
     fan_type ONE_SPEED;
     hvac_breaker_rating 200;
     total_thermal_mass_per_floor_area 4.48;
     motor_efficiency AVERAGE;
     motor_model BASIC;
     cooling_COP 3.40;
     floor_area 924;
     number_of_doors 1;
     air_temperature 68.7;
     mass_temperature 68.7;
     cooling_setpoint cooling3*0.969+4.94;
     heating_setpoint heating2*0.994+0.42;
     object ZIPload {
          schedule_skew -580;
          base_power LIGHTS*1.2565;
          power_fraction 0.600000;
          impedance_fraction 0.400000;
          current_fraction 0.000000;
          power_pf -0.780;
          current_pf 0.420;
          impedance_pf -0.880;
          heat_fraction 0.91;
     };
     object ZIPload {
          schedule_skew -580;
          base_power CLOTHESWASHER*0.4163;
          power_fraction 1.000000;
          impedance_fraction 0.000000;
          current_fraction 0.000000;
          power_pf 0.970;
          current_pf 0.970;
          impedance_pf 0.970;
          heat_fraction 0.70;
     };
     object ZIPload {
          schedule_skew -580;
          base_power REFRIGERATOR*0.5744;
          power_fraction 1.000000;
          impedance_fraction 0.000000;
          current_fraction 0.000000;
          power_pf 0.970;
          current_pf 0.970;
          impedance_pf 0.970;
          heat_fraction 0.72;
     };
     object ZIPload {
          schedule_skew -580;
          base_power DRYER*0.4448;
          power_fraction 0.100000;
          impedance_fraction 0.800000;
          current_fraction 0.100000;
          power_pf 0.900;
          current_pf 0.900;
          impedance_pf 1.000;
          heat_fraction 0.93;
     };
     object ZIPload {
          schedule_skew -580;
          base_power FREEZER*0.9021;
          power_fraction 1.000000;
          impedance_fraction 0.000000;
          current_fraction 0.000000;
          power_pf 0.970;
          current_pf 0.970;
          impedance_pf 0.970;
          heat_fraction 0.65;
     };
     object ZIPload {
          schedule_skew -580;
          base_power RANGE*0.6517;
          power_fraction 0.000000;
          impedance_fraction 1.000000;
          current_fraction 0.000000;
          power_pf 0.000;
          current_pf 0.000;
          impedance_pf 1.000;
          heat_fraction 0.88;
     };
     object ZIPload {
          schedule_skew -580;
          base_power MICROWAVE*0.8931;
          power_fraction 1.000000;
          impedance_fraction 0.000000;
          current_fraction 0.000000;
          power_pf 0.970;
          current_pf 0.970;
          impedance_pf 0.970;
          heat_fraction 0.96;
     };
     object waterheater {
          groupid fwh;
          location GARAGE;
          schedule_skew -580;
          demand new_small_2*0.989;
          tank_volume 80;
          dr_signal 1;
          fortran_sim_time 60;
          operating_mode 1;
          waterheater_model FORTRAN;
          tank_setpoint 125.006;
          thermostat_deadband 4.05;
     };
}

object triplex_line {
     from _triplex_node_A;
     to _tpm_flatrate_A7;
     groupid _Triplex_Line;
     phases AS;
     length 10;
     configuration TLCFG;
}

object triplex_meter {
     nominal_voltage 124;
     phases AS;
     name _tpm_flatrate_A7;
     groupid _flatrate_meter;
}

object triplex_meter {
     nominal_voltage 124;
     phases AS;
     name _tpm_rt_A7;
     groupid _rt_meter;
     parent _tpm_flatrate_A7;
}

object house {
     name F1_H_7;
     //Residential_2
     parent _tpm_rt_A7;
     schedule_skew -3353;
     Rroof 32.14;
     Rwall 18.39;
     Rfloor 16.90;
     Rdoors 5;
     Rwindows 1.60;
     airchange_per_hour 1.17;
     hvac_power_factor 0.97;
     cooling_system_type ELECTRIC;
     heating_system_type GAS;
     fan_type ONE_SPEED;
     hvac_breaker_rating 200;
     total_thermal_mass_per_floor_area 4.10;
     motor_efficiency AVERAGE;
     motor_model BASIC;
     cooling_COP 3.88;
     floor_area 634;
     number_of_doors 1;
     air_temperature 70.7;
     mass_temperature 70.7;
     cooling_setpoint cooling3*1.048+2.46;
     heating_setpoint heating3*0.992+2.98;
     object ZIPload {
          schedule_skew -3353;
          base_power LIGHTS*0.7015;
          power_fraction 0.600000;
          impedance_fraction 0.400000;
          current_fraction 0.000000;
          power_pf -0.780;
          current_pf 0.420;
          impedance_pf -0.880;
          heat_fraction 0.86;
     };
     object ZIPload {
          schedule_skew -3353;
          base_power CLOTHESWASHER*0.3819;
          power_fraction 1.000000;
          impedance_fraction 0.000000;
          current_fraction 0.000000;
          power_pf 0.970;
          current_pf 0.970;
          impedance_pf 0.970;
          heat_fraction 0.69;
     };
     object ZIPload {
          schedule_skew -3353;
          base_power REFRIGERATOR*0.5803;
          power_fraction 1.000000;
          impedance_fraction 0.000000;
          current_fraction 0.000000;
          power_pf 0.970;
          current_pf 0.970;
          impedance_pf 0.970;
          heat_fraction 0.95;
     };
     object ZIPload {
          schedule_skew -3353;
          base_power DRYER*0.4412;
          power_fraction 0.100000;
          impedance_fraction 0.800000;
          current_fraction 0.100000;
          power_pf 0.900;
          current_pf 0.900;
          impedance_pf 1.000;
          heat_fraction 0.95;
     };
     object ZIPload {
          schedule_skew -3353;
          base_power FREEZER*0.3736;
          power_fraction 1.000000;
          impedance_fraction 0.000000;
          current_fraction 0.000000;
          power_pf 0.970;
          current_pf 0.970;
          impedance_pf 0.970;
          heat_fraction 0.79;
     };
     object ZIPload {
          schedule_skew -3353;
          base_power RANGE*0.9169;
          power_fraction 0.000000;
          impedance_fraction 1.000000;
          current_fraction 0.000000;
          power_pf 0.000;
          current_pf 0.000;
          impedance_pf 1.000;
          heat_fraction 0.71;
     };
     object ZIPload {
          schedule_skew -3353;
          base_power MICROWAVE*0.3941;
          power_fraction 1.000000;
          impedance_fraction 0.000000;
          current_fraction 0.000000;
          power_pf 0.970;
          current_pf 0.970;
          impedance_pf 0.970;
          heat_fraction 0.65;
     };
     object waterheater {
          groupid fwh;
          location INSIDE;
          schedule_skew -3353;
          demand new_small_5*1.029;
          tank_volume 80;
          dr_signal 1;
          fortran_sim_time 60;
          operating_mode 1;
          waterheater_model FORTRAN;
          tank_setpoint 125.006;
          thermostat_deadband 4.05;
     };
}

object triplex_line {
     from _triplex_node_A;
     to _tpm_flatrate_A8;
     groupid _Triplex_Line;
     phases AS;
     length 10;
     configuration TLCFG;
}

object triplex_meter {
     nominal_voltage 124;
     phases AS;
     name _tpm_flatrate_A8;
     groupid _flatrate_meter;
}

object triplex_meter {
     nominal_voltage 124;
     phases AS;
     name _tpm_rt_A8;
     groupid _rt_meter;
     parent _tpm_flatrate_A8;
}

object house {
     name F1_H_8;
     //Residential_2
     parent _tpm_rt_A8;
     schedule_skew 2520;
     Rroof 28.55;
     Rwall 16.93;
     Rfloor 16.20;
     Rdoors 5;
     Rwindows 2.20;
     airchange_per_hour 0.91;
     hvac_power_factor 0.97;
     cooling_system_type ELECTRIC;
     heating_system_type GAS;
     fan_type ONE_SPEED;
     hvac_breaker_rating 200;
     total_thermal_mass_per_floor_area 4.27;
     motor_efficiency AVERAGE;
     motor_model BASIC;
     cooling_COP 3.83;
     floor_area 1105;
     number_of_doors 2;
     air_temperature 71.6;
     mass_temperature 71.6;
     cooling_setpoint cooling2*0.977+3.60;
     heating_setpoint heating4*1.001+0.02;
     object ZIPload {
          schedule_skew 2520;