// Very simple system - recorder tries to get an invalid property - should fail

clock {
	timezone PST+8PDT;
	starttime '2001-01-01 00:00:00';
	stoptime '2001-01-01 00:00:22';
}

module powerflow;
module tape;

object node {
	name Imanode;
	phases ABCN;
	nominal_voltage 240.0;
}

object recorder {
	parent Imanode;
	property X_nominal_voltage;	//Invalid property
	file junk_delete.csv;
}