// Very simple system - recorder tries to write to an invalid path - should fail

clock {
	timezone PST+8PDT;
	starttime '2001-01-01 00:00:00';
	stoptime '2001-01-01 00:00:22';
}

module powerflow;
module tape;

object node {
	name Imanode;
	phases ABCN;
	nominal_voltage 240.0;
}

object recorder {
	parent Imanode;
	property nominal_voltage;
	file disk_folder/junk_delete.csv;	//Path don't exist
}