// Very simple system - reads a file with an invalid value and should fail

clock {
	timezone PST+8PDT;
	starttime '2001-01-01 00:00:00';
	stoptime '2001-01-01 00:00:22';
}

module powerflow;
module tape;

object node {
	name Imanode;
	phases ABCN;
	nominal_voltage 240.0;
}

object player {
	parent Imanode;
	property nominal_voltage;	//just picked a random property
	file "../data_invalid_set_player.player";
}