//Simple test for inverter phase checks
//In this instance, the triplex phase is wrong to the parent
clock {
	timezone PST8;
	starttime '2013-08-01 0:00:00';
	stoptime '2013-08-01 0:00:01';
}

module powerflow {
	solver_method FBS;
}

module generators;

object meter {
	name one_bus;
	phases BC;
	nominal_voltage 7200.0;
}

object triplex_meter {
	name other_bus;
	phases AS;
	nominal_voltage 120.0;
}

object inverter {
	name inverter_1;
	phases BC;
	parent one_bus;
}

//Parent is A - fail
object inverter {
	name inverter_2;
	phases CS;
	parent other_bus;
}