clock {
	timezone "PST+8PDT";
	starttime '2001-08-01 12:00:00';
	stoptime '2001-08-01 12:00:06'; //25 seconds is better but reducing to 6 for time's sake
}

#set suppress_repeat_messages=1
#set relax_naming_rules=1;
#set profiler=1
#set pauseatexit=0
#define rotor_convergence=1e-12
#set double_format=%+.12lg
#set complex_format=%+.12lg%+.12lg%c

//Deltamode declarations - global values
// #set deltamode_timestep=100000000		//100 ms
#set deltamode_maximumtime=3.6e12	//1 hour
#set deltamode_iteration_limit=10		//Iteration limit



module tape;
module assert;
module reliability {
	enable_subsecond_models true;
	maximum_event_length 1800000;	//Maximum length of events in seconds (manual events are excluded from this limit)
	report_event_log false;
};

module powerflow {
	enable_subsecond_models true;
	deltamode_timestep 1 ms;	//10 ms
	solver_method NR;
     NR_solver_algorithm FPI;
	all_powerflow_delta true;
     all_frequency_measure_default PLL;
	// lu_solver "KLU";
	//enable_inrush TRUE;
};

module generators {
	enable_subsecond_models true;
	deltamode_timestep 1 ms;
};


// Import Diesels
#include "../seccntrl_Diesel1.glm"
#include "../seccntrl_Diesel2.glm"
#include "../seccntrl_Diesel3.glm"
#include "../seccntrl_Diesel4.glm"
// Import Inverters
#define FW=false
#define VV=false
#define inv1rate=350
#define inv2rate=1000
#define inv3rate=500
#define inv4rate=500
#include "../seccntrl_Inv1_GFL.glm"
#include "../seccntrl_Inv2_GFM.glm"
#include "../seccntrl_Inv3_GFL.glm"
#include "../seccntrl_Inv4_GFM.glm"
// #include "IEEE-123_Recorders.glm"

// ******************************************************
// Secondary Controller Setup 
// ******************************************************
// Frequency at which secondary controller sends updates
#ifndef Ts
#define Ts=0.2
#endif

object sec_control {
	name secondary_controller_MG1;
	flags DELTAMODE;
	parent node_150;
	deadband 0.001; //1 mHz deadband
	B 1; //MW/Hz
	kiPID 0.04; // pu/s;
	kpPID 0; //pu
	Ts ${Ts}; // output sample time
     Ts_f 0.1; // frequency sample time
     Ts_P ${Ts}; // unit error sample time
	anti_windup FEEDBACK_PIDOUT;
	participant_input "../data_seccntrl_t3MG1_part_init.csv";
};

object sec_control {
	name secondary_controller_MG2;
	flags DELTAMODE;
	parent meter_50;
	deadband 0.001; //1 mHz deadband
	B 1.7476; //MW/Hz
	kiPID 0.04; // pu/s;
	kpPID 0; //pu
	Ts ${Ts}; // output sample time
     Ts_f 0.1; // frequency sample time
     Ts_P ${Ts}; // unit error sample time
	anti_windup FEEDBACK_PIDOUT;
	participant_input "../data_seccntrl_t3MG2_part_init.csv";
};

object sec_control {
	name secondary_controller_MG3;
	flags DELTAMODE;
	parent node_197;
	deadband 0.001; //1 mHz deadband
	B 0.9167; //MW/Hz
	kiPID 0.04; // pu/s;
	kpPID 0; //pu
	Ts ${Ts}; // output sample time
     Ts_f 0.1; // frequency sample time
     Ts_P ${Ts}; // unit error sample time
	anti_windup FEEDBACK_PIDOUT;
	participant_input "../data_seccntrl_t3MG3_part_init.csv";
};

//Fault check option
object fault_check {
	name base_fault_check_object;
	check_mode ONCHANGE;
	strictly_radial false;
	// eventgen_object testgendev0;
	grid_association true;	//Flag to ensure non-monolithic islands
	// output_filename test_connect.txt;
	// full_output_file true;
};

//Manual object - needed to get fault_check to behave properly -- arbitrary item added

///////////////////////////////////////////////////////////////////////////
// Switching events /////////////////////////////////////////////
///////////////////////////////////////////////////////////////////////////

// switch switch_250-251
object player{
     name loadstep_player;
     flags DELTAMODE;
     parent switch_250-251;
     file "../data_seccntrl_t1loadswitch.player";
     all_events_delta true;
     property status;
};


// Record initial tie-line flows
object player{
     name MG1_MG2_tie_set;
     flags DELTAMODE;
     parent microgrid_switch1;
     file "../data_seccntrl_tielineset.player";
     property set_pdispatch;
};

object player{
     name MG2_MG3_tie_set;
     flags DELTAMODE;
     parent microgrid_switch4;
     file "../data_seccntrl_tielineset.player";
     property set_pdispatch;
};

///////////////////////////////////////////////////////////////////////////
// Asserts  ///////////////////////////////////////////////////////////////
///////////////////////////////////////////////////////////////////////////
// pdispatch and pdispatch offset
/////////////////////////////////
// Gen 1
object double_assert {
     parent Gen1;
     flags DELTAMODE;
     target pdispatch;
     within 0.001;
     object player{
          flags DELTAMODE;
          property value;
          file "../data_seccntrl_t3Gen1PdispatchAssert.csv";
     };
};

object double_assert {
     parent Gen1;
     flags DELTAMODE;
     target pdispatch_offset;
     within 0.001;
     object player {
          flags DELTAMODE;
          property value;
          file "../data_seccntrl_t3Gen1Pdispatch_offsetAssert.csv";
     };
};

// Gen 2
object double_assert {
     parent Gen2;
     flags DELTAMODE;
     target pdispatch;
     within 0.001;
     object player{
          flags DELTAMODE;
          property value;
          file "../data_seccntrl_t3Gen2PdispatchAssert.csv";
     };
};

object double_assert {
     parent Gen2;
     flags DELTAMODE;
     target pdispatch_offset;
     within 0.001;
     object player {
          flags DELTAMODE;
          property value;
          file "../data_seccntrl_t3Gen2Pdispatch_offsetAssert.csv";
     };
};

// Gen 3
object double_assert {
     parent Gen3;
     flags DELTAMODE;
     target pdispatch;
     within 0.001;
     object player{
          flags DELTAMODE;
          property value;
          file "../data_seccntrl_t3Gen3PdispatchAssert.csv";
     };
};

object double_assert {
     parent Gen3;
     flags DELTAMODE;
     target pdispatch_offset;
     within 0.001;
     object player {
          flags DELTAMODE;
          property value;
          file "../data_seccntrl_t3Gen3Pdispatch_offsetAssert.csv";
     };
};

// Gen 4
object double_assert {
     parent Gen4;
     flags DELTAMODE;
     target pdispatch;
     within 0.001;
     object player{
          flags DELTAMODE;
          property value;
          file "../data_seccntrl_t3Gen4PdispatchAssert.csv";
     };
};

object double_assert {
     parent Gen4;
     flags DELTAMODE;
     target pdispatch_offset;
     within 0.001;
     object player {
          flags DELTAMODE;
          property value;
          file "../data_seccntrl_t3Gen4Pdispatch_offsetAssert.csv";
     };
};

// Inv 1
object double_assert {
     parent Inv1;
     flags DELTAMODE;
     target pdispatch;
     within 0.001;
     object player {
          flags DELTAMODE;
          property value;
          file "../data_seccntrl_t3Inv1PdispatchAssert.csv";
     };
};

object double_assert {
     parent Inv1;
     flags DELTAMODE;
     target pdispatch_offset;
     within 0.001;
     object player {
          flags DELTAMODE;
          property value;
          file "../data_seccntrl_t3Inv1Pdispatch_offsetAssert.csv";
     };
};

// Inv 2
object double_assert {
     parent Inv2;
     flags DELTAMODE;
     target pdispatch;
     within 0.001;
     object player {
          flags DELTAMODE;
          property value;
          file "../data_seccntrl_t3Inv2PdispatchAssert.csv";
     };
};

object double_assert {
     parent Inv2;
     flags DELTAMODE;
     target pdispatch_offset;
     within 0.001;
     object player {
          flags DELTAMODE;
          property value;
          file "../data_seccntrl_t3Inv2Pdispatch_offsetAssert.csv";
     };
};

// Inv 3
object double_assert {
     parent Inv3;
     flags DELTAMODE;
     target pdispatch;
     within 0.001;
     object player {
          flags DELTAMODE;
          property value;
          file "../data_seccntrl_t3Inv3PdispatchAssert.csv";
     };
};

object double_assert {
     parent Inv3;
     flags DELTAMODE;
     target pdispatch_offset;
     within 0.001;
     object player {
          flags DELTAMODE;
          property value;
          file "../data_seccntrl_t3Inv3Pdispatch_offsetAssert.csv";
     };
};

// Inv 4
object double_assert {
     parent Inv4;
     flags DELTAMODE;
     target pdispatch;
     within 0.001;
     object player {
          flags DELTAMODE;
          property value;
          file "../data_seccntrl_t3Inv4PdispatchAssert.csv";
     };
};

object double_assert {
     parent Inv4;
     flags DELTAMODE;
     target pdispatch_offset;
     within 0.001;
     object player {
          flags DELTAMODE;
          property value;
          file "../data_seccntrl_t3Inv4Pdispatch_offsetAssert.csv";
     };
};

// Switch MG1-MG2
object double_assert {
     parent microgrid_switch1;
     flags DELTAMODE;
     target pdispatch;
     within 1;
     object player {
          flags DELTAMODE;
          property value;
          file "../data_seccntrl_t3switch1PdispatchAssert.csv";
     };
};

object double_assert {
     parent microgrid_switch1;
     flags DELTAMODE;
     target pdispatch_offset;
     within 0.001;
     value 0;
};

// Switch MG2-MG3
object double_assert {
     parent microgrid_switch4;
     flags DELTAMODE;
     target pdispatch;
     within 1;
     object player {
          flags DELTAMODE;
          property value;
          file "../data_seccntrl_t3switch4PdispatchAssert.csv";
     };
};

object double_assert {
     parent microgrid_switch4;
     flags DELTAMODE;
     target pdispatch_offset;
     within 0.001;
     value 0;
};
// Power output
////////////////
// Gen1
object complex_assert {
     parent Gen1;
     flags DELTAMODE;
     target pwr_electric;
     within 5;
     object player {
          flags DELTAMODE;
          property value;
          file "../data_seccntrl_t3Gen1PowerAssert.csv";
     };
};

// Gen2
object complex_assert {
     parent Gen2;
     flags DELTAMODE;
     target pwr_electric;
     within 5;
     object player {
          flags DELTAMODE;
          property value;
          file "../data_seccntrl_t3Gen2PowerAssert.csv";
     };
};

// Gen3
object complex_assert {
     parent Gen3;
     flags DELTAMODE;
     target pwr_electric;
     within 5;
     object player {
          flags DELTAMODE;
          property value;
          file "../data_seccntrl_t3Gen3PowerAssert.csv";
     };
};

// Gen4
object complex_assert {
     parent Gen4;
     flags DELTAMODE;
     target pwr_electric;
     within 5; 
     object player {
          flags DELTAMODE;
          property value;
          file "../data_seccntrl_t3Gen4PowerAssert.csv";
     };
};

// Inv1
object complex_assert {
     parent Inv1;
     flags DELTAMODE;
     target VA_Out;
     within 5;
     object player {
          flags DELTAMODE;
          property value;
          file "../data_seccntrl_t3Inv1PowerAssert.csv";
     };
};

// Inv2
object complex_assert {
     parent Inv2;
     flags DELTAMODE;
     target VA_Out;
     within 5;
     object player {
          flags DELTAMODE;
          property value;
          file "../data_seccntrl_t3Inv2PowerAssert.csv";
     };
};

// Inv3
object complex_assert {
     parent Inv3;
     flags DELTAMODE;
     target VA_Out;
     within 5;
     object player {
          flags DELTAMODE;
          property value;
          file "../data_seccntrl_t3Inv3PowerAssert.csv";
     };
};

// Inv4
object complex_assert {
     parent Inv4;
     flags DELTAMODE;
     target VA_Out;
     within 5;
     object player {
          flags DELTAMODE;
          property value;
          file "../data_seccntrl_t3Inv4PowerAssert.csv";
     };
};

// Switch MG1-MG2
object complex_assert {
     parent microgrid_switch1;
     flags DELTAMODE;
     target power_in;
     within 5;
     object player {
          flags DELTAMODE;
          property value;
          file "../data_seccntrl_t3switch1PinAssert.csv";
     };
};

object complex_assert {
     parent microgrid_switch1;
     flags DELTAMODE;
     target power_out;
     within 5;
     object player {
          flags DELTAMODE;
          property value;
          file "../data_seccntrl_t3switch1PoutAssert.csv";
     };
};

// Switch MG2-MG3
object complex_assert {
     parent microgrid_switch4;
     flags DELTAMODE;
     target power_in;
     within 5;
     object player {
          flags DELTAMODE;
          property value;
          file "../data_seccntrl_t3switch4PinAssert.csv";
     };
};

object complex_assert {
     parent microgrid_switch4;
     flags DELTAMODE;
     target power_out;
     within 5;
     object player {
          flags DELTAMODE;
          property value;
          file "../data_seccntrl_t3switch4PoutAssert.csv";
     };
};
///////////////////////////////////////////////////////////////////////////
// Start of individual objects/////////////////////////////////////////////
///////////////////////////////////////////////////////////////////////////

//Phase Conductor for 1 thru 8: 336,400 26/7 ACSR
object overhead_line_conductor {
	name overhead_line_conductor_1;
	geometric_mean_radius 0.0244  ;
	resistance 0.30600;
}

//Phase Conductor for 9 thru 11: 1/0 ACSR
object overhead_line_conductor {
	name overhead_line_conductor_2;
	geometric_mean_radius 0.004460  ;
	resistance 1.12000;
}	

//Phase Conductor for neutral: 4/0 6/1 ACSR
object overhead_line_conductor {
	name overhead_line_conductor_3;
	geometric_mean_radius 0.008140  ;
	resistance 0.59200;
}

// Phase Conductor for 12: 1/0 AA,TS
object underground_line_conductor { 
     name underground_line_conductor_1;
	 outer_diameter 1.060000;
	 conductor_gmr 0.011100;
	 conductor_diameter 0.368000;
	 conductor_resistance 0.970000;
	 neutral_gmr 0.011100;
	 neutral_resistance 0.970000;
	 neutral_diameter 0.0640837;
	 neutral_strands 6.000000;
	 shield_gmr 0.000000;
	 shield_resistance 0.000000;
}

// Overhead line configurations
// ABCN
object line_spacing {
	name line_spacing_1;
	distance_AB 2.5;
	distance_AC 7.0;
	distance_BC 4.5;
	distance_AN 5.656854;
	distance_BN 4.272002;
	distance_CN 5.0;
}

// CABN
object line_spacing {
	name line_spacing_2;
	distance_AB 4.5;
	distance_AC 2.5;
	distance_BC 7.0;
	distance_AN 5.0;
	distance_BN 4.272002;
	distance_CN 5.656854;
}

// BCAN
object line_spacing {
	name line_spacing_3;
	distance_AB 7.0;
	distance_AC 4.5;
	distance_BC 2.5;
	distance_AN 5.0;
	distance_BN 5.656854;
	distance_CN 4.272002;
}

// CBAN
object line_spacing {
	name line_spacing_4;
	distance_AB 4.5;
	distance_AC 7.0;
	distance_BC 2.5;
	distance_AN 5.0;
	distance_BN 4.272002;
	distance_CN 5.656854;
}

// BACN
object line_spacing {
	name line_spacing_5;
	distance_AB 2.5;
	distance_AC 4.5;
	distance_BC 7.0;
	distance_BN 5.656854;
	distance_AN 4.272002;
	distance_CN 5.0;
}

// ACBN
object line_spacing {
	name line_spacing_6;
	distance_AB 7.0;
	distance_AC 2.5;
	distance_BC 4.5;
	distance_AN 5.656854;
	distance_CN 4.272002;
	distance_BN 5.0;
}

//ACN
object line_spacing {
	name line_spacing_7;
	distance_AB 0.0;
	distance_AC 7.0;
	distance_BC 0.0;
	distance_AN 5.656854;
	distance_BN 0.0;
	distance_CN 5.0;
}

//ABN
object line_spacing {
	name line_spacing_8;
	distance_AB 7.0;
	distance_AC 0.0;
	distance_BC 0.0;
	distance_AN 5.656854;
	distance_BN 5.0;
	distance_CN 0.0;
}

//AN
object line_spacing {
	name line_spacing_9;
	distance_AB 0.0;
	distance_AC 0.0;
	distance_BC 0.0;
	distance_AN 5.0;
	distance_BN 0.0;
	distance_CN 0.0;
}

//BN
object line_spacing {
	name line_spacing_10;
	distance_AB 0.0;
	distance_AC 0.0;
	distance_BC 0.0;
	distance_AN 0.0;
	distance_BN 5.0;
	distance_CN 0.0;
}

//CN
object line_spacing {
	name line_spacing_11;
	distance_AB 0.0;
	distance_AC 0.0;
	distance_BC 0.0;
	distance_AN 0.0;
	distance_BN 0.0;
	distance_CN 5.0;
}

//ABC
object line_spacing {
	name line_spacing_12;
	distance_AB 0.5;
	distance_AC 1.0;
	distance_BC 0.5;
	distance_AN 0.0;
	distance_BN 0.0;
	distance_CN 0.0;
}


object line_configuration {
	name line_configuration_1;
	conductor_A overhead_line_conductor_1;
	conductor_B overhead_line_conductor_1;
	conductor_C overhead_line_conductor_1;
	conductor_N overhead_line_conductor_3;
	spacing line_spacing_1;
}

object line_configuration {
	name line_configuration_2;
	conductor_A overhead_line_conductor_1;
	conductor_B overhead_line_conductor_1;
	conductor_C overhead_line_conductor_1;
	conductor_N overhead_line_conductor_3;
	spacing line_spacing_2;
}

object line_configuration {
	name line_configuration_3;
	conductor_A overhead_line_conductor_1;
	conductor_B overhead_line_conductor_1;
	conductor_C overhead_line_conductor_1;
	conductor_N overhead_line_conductor_3;
	spacing line_spacing_3;
}

object line_configuration {
	name line_configuration_4;
	conductor_A overhead_line_conductor_1;
	conductor_B overhead_line_conductor_1;
	conductor_C overhead_line_conductor_1;
	conductor_N overhead_line_conductor_3;
	spacing line_spacing_4;
}

object line_configuration {
	name line_configuration_5;
	conductor_A overhead_line_conductor_1;
	conductor_B overhead_line_conductor_1;
	conductor_C overhead_line_conductor_1;
	conductor_N overhead_line_conductor_3;
	spacing line_spacing_5;
}

object line_configuration {
	name line_configuration_6;
	conductor_A overhead_line_conductor_1;
	conductor_B overhead_line_conductor_1;
	conductor_C overhead_line_conductor_1;
	conductor_N overhead_line_conductor_3;
	spacing line_spacing_6;
}

object line_configuration {
	name line_configuration_7;
	conductor_A overhead_line_conductor_1;
	conductor_C overhead_line_conductor_1;
	conductor_N overhead_line_conductor_3;
	spacing line_spacing_7;
}

object line_configuration {
	name line_configuration_8;
	conductor_A overhead_line_conductor_1;
	conductor_B overhead_line_conductor_1;
	conductor_N overhead_line_conductor_3;
	spacing line_spacing_8;
}

object line_configuration {
	name line_configuration_9;
	conductor_A overhead_line_conductor_2;
	conductor_N overhead_line_conductor_2;
	spacing line_spacing_9;
}

object line_configuration {
	name line_configuration_10;
	conductor_B overhead_line_conductor_1;
	conductor_N overhead_line_conductor_1;
	spacing line_spacing_10;
}

object line_configuration {
	name line_configuration_11;
	conductor_C overhead_line_conductor_1;
	conductor_N overhead_line_conductor_1;
	spacing line_spacing_11;
}

object line_configuration {
	name line_configuration_12;
	 conductor_A underground_line_conductor_1;
	 conductor_B underground_line_conductor_1;
	 conductor_C underground_line_conductor_1;
	 spacing line_spacing_12;
}



//Define line objects 
object overhead_line  {
     name OH_line_1-2;
	 phases "BN";
     from load_1;
     to load_2;
     length 175;
     configuration line_configuration_10;
}

object overhead_line  {
     name OH_line_1-3;
	 phases "CN";
     from load_1;
     to node_3;
     length 250;
     configuration line_configuration_11;
}
 
object overhead_line  {
     name OH_line_1-7;
	 phases "ABCN";
     from load_1;
     to load_7;
     length 300;
     configuration line_configuration_1;
}
 
object overhead_line  {
     name OH_line_3-4;
	 phases "CN";
     from node_3;
     to load_4;
     length 200;
     configuration line_configuration_11;
}
 
object overhead_line  {
     name OH_line_3-5;
	 phases "CN";
     from node_3;
     to load_5;
     length 325;
     configuration line_configuration_11;
}
 
object overhead_line  {
     name OH_line_5-6;
	 phases "CN";
     from load_5;
     to load_6;
     length 250;
     configuration line_configuration_11;
}
 
object overhead_line  {
     name OH_line_7-8;
	 phases "ABCN";
     from load_7;
     to node_8;
     length 200;
     configuration line_configuration_1;
}
 
object overhead_line  {
     name OH_line_8-12;
	 phases "BN";
     from node_8;
     to load_12;
     length 225;
     configuration line_configuration_10;
}
 
object overhead_line  {
     name OH_line_8-9;
	 phases "AN";
     from node_8;
     to load_9;
     length 225;
     configuration line_configuration_9;
}
 
object overhead_line  {
     name OH_line_8-13;
	 phases "ABCN";
     from node_8;
     to meter_13;
     length 300;
     configuration line_configuration_1;
}
 
object overhead_line  {
     name OH_line_1401-14;
	 phases "AN";
     from node_1401;
     to node_14;
     length 425;
     configuration line_configuration_9;
}
 
object overhead_line  {
     name OH_line_13-34;
	 phases "CN";
     from meter_13;
     to load_34;
     length 150;
     configuration line_configuration_11;
}
 
object overhead_line  {
     name OH_line_13-18;
	 phases "ABCN";
     from meter_13;
     to node_18;
     length 825;
     configuration line_configuration_2;
}
 
object overhead_line  {
     name OH_line_14-11;
	 phases "AN";
     from node_14;
     to load_11;
     length 250;
     configuration line_configuration_9;
}
 
object overhead_line  {
     name OH_line_14-10;
	 phases "AN";
     from node_14;
     to load_10;
     length 250;
     configuration line_configuration_9;
}
 
object overhead_line  {
     name OH_line_15-16;
	 phases "CN";
     from node_15;
     to load_16;
     length 375;
     configuration line_configuration_11;
}
 
object overhead_line  {
     name OH_line_15-17;
	 phases "CN";
     from node_15;
     to load_17;
     length 350;
     configuration line_configuration_11;
}
 
object overhead_line  {
     name OH_line_18-19;
	 phases "AN";
     from node_18;
     to load_19;
     length 250;
     configuration line_configuration_9;
}
 
object overhead_line  {
     name OH_line_18-21;
	 phases "ABCN";
     from node_18;
     to node_21;
     length 300;
     configuration line_configuration_2;
}
 
object overhead_line  {
     name OH_line_19-20;
	 phases "AN";
     from load_19;
     to load_20;
     length 325;
     configuration line_configuration_9;
}
 
object overhead_line  {
     name OH_line_21-22;
	 phases "BN";
     from node_21;
     to load_22;
     length 525;
     configuration line_configuration_10;
}
 
object overhead_line  {
     name OH_line_21-23;
	 phases "ABCN";
     from node_21;
     to node_23;
     length 250;
     configuration line_configuration_2;
}
 
object overhead_line  {
     name OH_line_23-24;
	 phases "CN";
     from node_23;
     to load_24;
     length 550;
     configuration line_configuration_11;
}
 
object overhead_line  {
     name OH_line_23-25;
	 phases "ABCN";
     from node_23;
     to node_25;
     length 275;
     configuration line_configuration_2;
}
 
object overhead_line  {
     name OH_line_2601-26;
	 phases "ACN";
     from node_2601;
     to node_26;
     length 350;
     configuration line_configuration_7;
}
 
object overhead_line  {
     name OH_line_25-28;
	 phases "ABCN";
	 from node_25;
     to load_28;
     length 200;
     configuration line_configuration_2;
}
 
object overhead_line  {
     name OH_line_26-27;
	 phases "ACN";
     from node_26;
     to node_27;
     length 275;
     configuration line_configuration_7;
}
 
object overhead_line  {
     name OH_line_26-31;
	 phases "CN";
     from node_26;
     to load_31;
     length 225;
     configuration line_configuration_11;
}
 
object overhead_line  {
     name OH_line_27-33;
	 phases "AN";
     from node_27;
     to load_33;
     length 500;
     configuration line_configuration_9;
}
 
object overhead_line  {
     name OH_line_28-29;
	 phases "ABCN";
     from load_28;
     to load_29;
     length 300;
     configuration line_configuration_2;
}
 
object overhead_line  {
     name OH_line_29-30;
	 phases "ABCN";
     from load_29;
     to load_30;
     length 350;
     configuration line_configuration_2;
}
 
object overhead_line  {
     name OH_line_30-250;
	 phases "ABCN";
     from load_30;
     to node_250;
     length 200;
     configuration line_configuration_2;
}
 
object overhead_line  {
     name OH_line_31-32;
	 phases "CN";
     from load_31;
     to load_32;
     length 300;
     configuration line_configuration_11;
}
 
object overhead_line  {
     name OH_line_34-15;
	 phases "CN";
     from load_34;
     to node_15;
     length 100;
     configuration line_configuration_11;
}
 
object overhead_line  {
     name OH_line_35-36;
	 phases "ABN";
     from load_35;
     to node_36;
     length 650;
     configuration line_configuration_8;
}
 
object overhead_line  {
     name OH_line_35-40;
	 phases "ABCN";
     from load_35;
     to node_40;
     length 250;
     configuration line_configuration_1;
}
 
object overhead_line  {
     name OH_line_36-37;
	 phases "AN";
     from node_36;
     to load_37;
     length 300;
     configuration line_configuration_9;
}
 
object overhead_line  {
     name OH_line_36-38;
	 phases "BN";
     from node_36;
     to load_38;
     length 250;
     configuration line_configuration_10;
}
 
object overhead_line  {
     name OH_line_38-39;
	 phases "BN";
     from load_38;
     to load_39;
     length 325;
     configuration line_configuration_10;
}
 
object overhead_line  {
     name OH_line_40-41;
	 phases "CN";
     from node_40;
     to load_41;
     length 325;
     configuration line_configuration_11;
}
 
object overhead_line  {
     name OH_line_40-42;
	 phases "ABCN";
     from node_40;
     to load_42;
     length 250;
     configuration line_configuration_1;
}
 
object overhead_line  {
     name OH_line_42-43;
	 phases "BN";
     from load_42;
     to load_43;
     length 500;
     configuration line_configuration_10;
}
 
object overhead_line  {
     name OH_line_42-44;
	 phases "ABCN";
     from load_42;
     to node_44;
     length 200;
     configuration line_configuration_1;
}
 
object overhead_line  {
     name OH_line_44-45;
	 phases "AN";
     from node_44;
     to load_45;
     length 200;
     configuration line_configuration_9;
}
 
object overhead_line  {
     name OH_line_44-47;
	 phases "ABCN";
     from node_44;
     to load_47;
     length 250;
     configuration line_configuration_1;
}
 
object overhead_line  {
     name OH_line_45-46;
	 phases "AN";
     from load_45;
     to load_46;
     length 300;
     configuration line_configuration_9;
}
 
object overhead_line  {
     name OH_line_47-48;
	 phases "ABCN";
     from load_47;
     to load_48;
     length 150;
     configuration line_configuration_4;
}
 
object overhead_line  {
     name OH_line_47-49;
	 phases "ABCN";
     from load_47;
     to load_49;
     length 250;
     configuration line_configuration_4;
}
 
object overhead_line  {
     name OH_line_49-50;
	 phases "ABCN";
     from load_49;
     to meter_50;
     length 250;
     configuration line_configuration_4;
}
 
object overhead_line  {
     name OH_line_50-51;
	 phases "ABCN";
     from meter_50;
     to load_51;
     length 250;
     configuration line_configuration_4;
}

object overhead_line  {
     name OH_line_51-151;
	 phases "ABCN";			//undefined line segment
     from load_51;
     to node_151;
     length 700;
     configuration line_configuration_4;
}
 
object overhead_line  {
     name OH_line_52-53;
	 phases "ABCN";
     from load_52;
     to load_53;
     length 200;
     configuration line_configuration_1;
}
 
object overhead_line  {
     name OH_line_53-54;
	 phases "ABCN";
     from load_53;
     to node_54;
     length 125;
     configuration line_configuration_1;
}
 
object overhead_line  {
     name OH_line_54-55;
	 phases "ABCN";
     from node_54;
     to load_55;
     length 275;
     configuration line_configuration_1;
}
 
object overhead_line  {
     name OH_line_54-57;
	 phases "ABCN";
     from node_54;
     to node_57;
     length 350;
     configuration line_configuration_3;
}
 
object overhead_line  {
     name OH_line_55-56;
	 phases "ABCN";
     from load_55;
     to load_56;
     length 275;
     configuration line_configuration_1;
}
 
object overhead_line  {
     name OH_line_57-58;
	 phases "BN";
     from node_57;
     to load_58;
     length 250;
     configuration line_configuration_10;
}
 
object overhead_line  {
     name OH_line_57-60;
	 phases "ABCN";
     from node_57;
     to load_60;
     length 750;
     configuration line_configuration_3;
}
 
object overhead_line  {
     name OH_line_58-59;
	 phases "BN";
     from load_58;
     to load_59;
     length 250;
     configuration line_configuration_10;
}
 
object overhead_line  {
     name OH_line_60-61;
	 phases "ABCN";
     from load_60;
     to node_61;
     length 550;
     configuration line_configuration_5;
}
 
object underground_line  {
     name OH_line_60-62;
	 phases "ABC";
     from load_60;
     to load_62;
     length 250;
     configuration line_configuration_12;
}
 
object underground_line  {
     name OH_line_62-63;
	 phases "ABC";
     from load_62;
     to load_63;
     length 175;
     configuration line_configuration_12;
}
 
object underground_line  {
     name OH_line_63-64;
	 phases "ABC";
     from load_63;
     to load_64;
     length 350;
     configuration line_configuration_12;
}
 
object underground_line  {
     name OH_line_64-65;
	 phases "ABC";
     from load_64;
     to load_65;
     length 425;
     configuration line_configuration_12;
}
 
object underground_line  {
     name OH_line_65-66;
	 phases "ABC";
     from load_65;
     to meter_66;
     length 325;
     configuration line_configuration_12;
}
 
object overhead_line  {
     name OH_line_67-68;
	 phases "AN";
     from node_67;
     to load_68;
     length 200;
     configuration line_configuration_9;
}
 
object overhead_line  {
     name OH_line_67-72;
	 phases "ABCN";
     from node_67;
     to load_72;
     length 275;
     configuration line_configuration_3;
}

 
object overhead_line  {
     name OH_line_67-97;
	 phases "ABCN";
     from node_67;
     to node_97;
     length 250;
     configuration line_configuration_3;
}
 
object overhead_line  {
     name OH_line_68-69;
	 phases "AN";
     from load_68;
     to load_69;
     length 275;
     configuration line_configuration_9;
}
 
object overhead_line  {
     name OH_line_69-70;
	 phases "AN";
     from load_69;
     to load_70;
     length 325;
     configuration line_configuration_9;
}
 
object overhead_line  {
     name OH_line_70-71;
	 phases "AN";
     from load_70;
     to load_71;