// Test power out of the inverter for default single-point efficiency and for multipoint efficiency model

#set profiler=1;

clock {
     //timezone PST+8PDT;
	 timezone PST8;
     starttime '2009-01-01 00:00:00';
     stoptime '2010-01-01 00:00:00';
}

module tape;
module climate;
module generators;
module assert;

module powerflow {
     solver_method NR;
     NR_iteration_limit 50;
};

object climate {
     name "WA-Yakima";
     tmyfile "../WA-Yakima.tmy2";
	 interpolate NONE;
};

object triplex_meter {
	name trip_swing;
	bustype SWING;
	phases AS;
	nominal_voltage 120.0;
}

object triplex_meter {
	name trip_fixed_meter;
	parent trip_swing;
	phases AS;
	nominal_voltage 120.0;
}

object inverter {
	name trip_inv1;
	phases AS;
	parent trip_fixed_meter;
	rated_power 25000;
	object complex_assert {
		target VA_Out;
		operation REAL;
		object player {
			property value;
			file "../inverter_VA_out_default_solar.player";
		};
		within 0.01;
	};
	// object recorder {
		// property "VA_In.real, VA_Out.real";
		// file "inverter1_VA_in_VA_out.csv";
		// interval 3600;
	// };
}

//default solar object
object solar {
	name trip_solar1;
	phases AS;
	parent trip_inv1;
	object double_assert {
		target Insolation;
		object player {
			property value;
			file "../default_solar_Insolation.player";
		};
		within 0.01;
	};
	object complex_assert {
		target VA_Out;
		operation REAL;
		object player {
			property value;
			file "../default_solar_VA_out.player";
		};
		within 0.01;
	};

}

object inverter {
	name trip_inv2;
	phases AS;
	parent trip_fixed_meter;
	inverter_type FOUR_QUADRANT;
	rated_power 4500.0;
	use_multipoint_efficiency TRUE;
	// The following CEC parameters are for NREL SAM multipoint efficency curve: SAM/Sandia Inverters/Fronius USA, LLC:IG4500-LV NEG 208V [CEC 2006]
	maximum_dc_power 4834.61;
	maximum_dc_voltage 277.888;
	minimum_dc_power 35.5073;
	c_0 -5.8408e-006;
	c_1 -2.3810e-005;
	c_2 -0.0012;
	c_3 -0.0015;
	object complex_assert {
		target VA_Out;
		operation REAL;
		object player {
			property value;
			file "../mltpt_efficiency_inverter_VA_out.player";
		};
		within 0.01;
	};
	// object recorder {
		// property "VA_In.real, VA_Out.real";
		// file "inverter2_VA_in_VA_out.csv";
		// interval 3600;
	// };
}

//default solar object
object solar {
	name trip_solar2;
	phases AS;
	parent trip_inv2;
	weather "WA-Yakima";
	Rated_kVA 4.0 kVA;
	area 29.6296 m^2;
	tilt_angle 45.0;
	efficiency 0.135;
	orientation_azimuth 180.0; //south
	orientation FIXED_AXIS;
	SOLAR_TILT_MODEL SOLPOS;
	SOLAR_POWER_MODEL FLATPLATE;
	// object recorder {
		// property "Insolation,VA_Out,shading_factor";
		// file "deafult_array.csv";
		// interval 3600;
		// };
	object complex_assert {
		target VA_Out;
		operation REAL;
		object player {
			property value;
			file "../fixed_45_S_VA_out.player"; 
		}; 
		within 0.01;
	};
	object double_assert {
		target Insolation;
		object player {
			property value;
			file "../fixed_45_S_Insolation.player";
		};
		within 0.01;
	};

}

//Misc objects - prevent rank issue
object triplex_line_conductor {     
      name triplex_4/0 AA;    
      resistance 0.48;     
      geometric_mean_radius 0.0158;     
}       

object triplex_line_configuration {     
      name triplex_line_configuration_1;     
      conductor_1 triplex_4/0 AA;    
      conductor_2 triplex_4/0 AA;    
      conductor_N triplex_4/0 AA;    
      insulation_thickness 0.08;     
      diameter 0.522;     
}       

object underground_line_conductor {     
      name underground_line_conductor_2;     
      //name 1000 AAC (Conc);   
      rating.summer.continuous 488.0;     
      outer_diameter 2.15;     
      conductor_gmr 0.0371 ft;    
      conductor_diameter 1.152;     
      conductor_resistance 0.091872;     
      neutral_gmr 0.0842565914341201 ft;    
      neutral_resistance 5.3856;     
      neutral_diameter 0.1019;     
      neutral_strands 20.0;     
      shield_gmr 0.00;     
      shield_resistance 0.00;     
}       

object underground_line_conductor {     
      name underground_line_conductor_3;     
      //name 2 AL (Conc);   
      rating.summer.continuous 112.0;     
      outer_diameter 1.09;     
      conductor_gmr 0.0088 ft;    
      conductor_diameter 0.292;     
      conductor_resistance 1.38336;     
      neutral_gmr 0.0348162687755351 ft;    
      neutral_resistance 13.5696;     
      neutral_diameter 0.0641;     
      neutral_strands 6.0;     
      shield_gmr 0.00;     
      shield_resistance 0.00;     
}       

object underground_line_conductor {     
      name underground_line_conductor_4;     
      //name 1000 AAC (Tape);   
      rating.summer.continuous 775.0;     
      outer_diameter 1.87;     
      conductor_gmr 0.0371 ft;    
      conductor_diameter 1.15;     
      conductor_resistance 0.0222;     
      neutral_gmr 0.0732739718442675 ft;    
      neutral_resistance 0.05;     
      neutral_diameter 0.102;     
      neutral_strands 20.0;     
      shield_gmr 0.00;     
      shield_resistance 0.00;     
}       
