////////////////////////////////////////////////////////// BEGIN////////////////////////////////////////////////////////
// filename... powerflow.glm 

clock { 
	 timestamp '2000-01-01 0:00:00';
	 timezone EST+5EDT;
}
//%ifdef player
//module tape;
//object player {
//	parent load:58;
//	property constant_power_B;
//	file $player;
//	loop 100;
//}
//%endif

////////////////////////////////////////////////////////
// modules
module powerflow;


// Conductor: //2 ACSR
object overhead_line_conductor:512 {
	geometric_mean_radius 1.0 ft;
	resistance 5.28;
}

// Conductor: //6 CU SOL
object overhead_line_conductor:519 {
	geometric_mean_radius 0.201 ft;
	resistance 1.0613;
}

// Conductor: //2 AL UG
object overhead_line_conductor:514 {
	geometric_mean_radius 1.0 ft;
	resistance 5.28;
}

// Conductor: 336 AAC
object overhead_line_conductor:531 {
	geometric_mean_radius 0.666 ft;
	resistance 3.5165;
}

// Conductor: 1/0 AL UG
object overhead_line_conductor:522 {
	geometric_mean_radius 1.0 ft;
	resistance 5.28;
}

// Conductor: 350 AL UG
object overhead_line_conductor:535 {
	geometric_mean_radius 1.0 ft;
	resistance 5.28;
}

// Conductor: //4 CU SOL
object overhead_line_conductor:518 {
	geometric_mean_radius 0.254 ft;
	resistance 1.3411;
}

// Conductor: 1/0 AL JKT UG
object overhead_line_conductor:521 {
	geometric_mean_radius 1.0 ft;
	resistance 5.28;
}

// Conductor: //4 ACSR
object overhead_line_conductor:517 {
	geometric_mean_radius 1.0 ft;
	resistance 5.28;
}

// Conductor: 3/0 AAC
object overhead_line_conductor:528 {
	geometric_mean_radius 0.464 ft;
	resistance 2.4499;
}

// Conductor: //2 CU UG
object overhead_line_conductor:516 {
	geometric_mean_radius 1.0 ft;
	resistance 5.28;
}

// Conductor: 2/0 CU
object overhead_line_conductor:525 {
	geometric_mean_radius 0.414 ft;
	resistance 2.1859;
}

// Conductor: 1000 AL UG
object overhead_line_conductor:524 {
	geometric_mean_radius 1.0 ft;
	resistance 5.28;
}

// Conductor: //2 AL JKT UG
object overhead_line_conductor:513 {
	geometric_mean_radius 1.0 ft;
	resistance 5.28;
}

// Conductor: 500 AL UG NEUT
object overhead_line_conductor:537 {
	geometric_mean_radius 1.0 ft;
	resistance 5.28;
}

// Line Spacing
object line_spacing:651 {
	distance_AN 111.0;
}

// Line Spacing
object line_spacing:653 {
	distance_AB 49.5;
	distance_BC 49.5;
	distance_AC 49.5;
	distance_AN 105.0;
	distance_BN 105.0;
	distance_CN 105.0;
}

// Line Spacing
object line_spacing:655 {
	distance_BN 111.0;
}

// Line Spacing
object line_spacing:657 {
	distance_CN 111.0;
}

// Line Spacing
object line_spacing:659 {
	distance_AN 0.0;
}

// Line Spacing
object line_spacing:661 {
	distance_AB 64.5;
	distance_BC 64.5;
	distance_AC 64.5;
	distance_AN 107.0;
	distance_BN 107.0;
	distance_CN 107.0;
}

// Line Spacing
object line_spacing:663 {
	distance_BN 0.0;
}

// Line Spacing
object line_spacing:666 {
	distance_CN 0.0;
}

// Line Spacing
object line_spacing:670 {
	distance_AB 0.0;
	distance_BC 0.0;
	distance_AC 0.0;
	distance_AN 0.0;
	distance_BN 0.0;
	distance_CN 0.0;
}

// Line Spacing
object line_spacing:673 {
	distance_BC 0.0;
	distance_BN 0.0;
	distance_CN 0.0;
}

// Line Spacing
object line_spacing:677 {
	distance_AB 71.5;
	distance_BC 71.5;
	distance_AC 71.5;
	distance_AN 110.0;
	distance_BN 110.0;
	distance_CN 110.0;
}

// Line Spacing
object line_spacing:682 {
	distance_BN 74.0;
}

// Line Spacing
object line_spacing:688 {
	distance_AN 74.0;
}

// Line Spacing
object line_spacing:692 {
	distance_AC 0.0;
	distance_AN 0.0;
	distance_CN 0.0;
}

// Line Spacing
object line_spacing:695 {
	distance_AB 56.5;
	distance_BC 56.5;
	distance_AC 56.5;
	distance_AN 108.0;
	distance_BN 108.0;
	distance_CN 108.0;
}

// Line Spacing
object line_spacing:706 {
	distance_AB 42.5;
	distance_BC 42.5;
	distance_AC 42.5;
	distance_AN 101.0;
	distance_BN 101.0;
	distance_CN 101.0;
}

// Line Configuration
object line_configuration:652 {
	conductor_A overhead_line_conductor:512;
	conductor_N overhead_line_conductor:512;
	spacing line_spacing:651;
}

// Line Configuration
object line_configuration:654 {
	conductor_A overhead_line_conductor:512;
	conductor_B overhead_line_conductor:512;
	conductor_C overhead_line_conductor:512;
	conductor_N overhead_line_conductor:512;
	spacing line_spacing:653;
}

// Line Configuration
object line_configuration:656 {
	conductor_B overhead_line_conductor:519;
	conductor_N overhead_line_conductor:519;
	spacing line_spacing:655;
}

// Line Configuration
object line_configuration:658 {
	conductor_C overhead_line_conductor:512;
	conductor_N overhead_line_conductor:512;
	spacing line_spacing:657;
}

// Line Configuration
object line_configuration:660 {
	conductor_A overhead_line_conductor:514;
	conductor_N overhead_line_conductor:514;
	spacing line_spacing:659;
}

// Line Configuration
object line_configuration:662 {
	conductor_A overhead_line_conductor:512;
	conductor_B overhead_line_conductor:512;
	conductor_C overhead_line_conductor:512;
	conductor_N overhead_line_conductor:512;
	spacing line_spacing:661;
}

// Line Configuration
object line_configuration:664 {
	conductor_B overhead_line_conductor:514;
	conductor_N overhead_line_conductor:514;
	spacing line_spacing:663;
}

// Line Configuration
object line_configuration:665 {
	conductor_A overhead_line_conductor:531;
	conductor_B overhead_line_conductor:531;
	conductor_C overhead_line_conductor:531;
	conductor_N overhead_line_conductor:528;
	spacing line_spacing:653;
}

// Line Configuration
object line_configuration:667 {
	conductor_C overhead_line_conductor:522;
	conductor_N overhead_line_conductor:522;
	spacing line_spacing:666;
}

// Line Configuration
object line_configuration:668 {
	conductor_A overhead_line_conductor:522;
	conductor_N overhead_line_conductor:522;
	spacing line_spacing:659;
}

// Line Configuration
object line_configuration:669 {
	conductor_B overhead_line_conductor:522;
	conductor_N overhead_line_conductor:522;
	spacing line_spacing:663;
}

// Line Configuration
object line_configuration:671 {
	conductor_A overhead_line_conductor:522;
	conductor_B overhead_line_conductor:522;
	conductor_C overhead_line_conductor:522;
	conductor_N overhead_line_conductor:522;
	spacing line_spacing:670;
}

// Line Configuration
object line_configuration:672 {
	conductor_A overhead_line_conductor:535;
	conductor_B overhead_line_conductor:535;
	conductor_C overhead_line_conductor:535;
	conductor_N overhead_line_conductor:535;
	spacing line_spacing:670;
}

// Line Configuration
object line_configuration:674 {
	conductor_B overhead_line_conductor:522;
	conductor_C overhead_line_conductor:522;
	conductor_N overhead_line_conductor:522;
	spacing line_spacing:673;
}

// Line Configuration
object line_configuration:675 {
	conductor_B overhead_line_conductor:512;
	conductor_N overhead_line_conductor:512;
	spacing line_spacing:655;
}

// Line Configuration
object line_configuration:676 {
	conductor_B overhead_line_conductor:518;
	conductor_N overhead_line_conductor:518;
	spacing line_spacing:655;
}

// Line Configuration
object line_configuration:678 {
	conductor_A overhead_line_conductor:512;
	conductor_B overhead_line_conductor:512;
	conductor_C overhead_line_conductor:512;
	conductor_N overhead_line_conductor:512;
	spacing line_spacing:677;
}

// Line Configuration
object line_configuration:679 {
	conductor_B overhead_line_conductor:521;
	conductor_N overhead_line_conductor:521;
	spacing line_spacing:663;
}

// Line Configuration
object line_configuration:680 {
	conductor_C overhead_line_conductor:531;
	conductor_N overhead_line_conductor:528;
	spacing line_spacing:657;
}

// Line Configuration
object line_configuration:681 {
	conductor_A overhead_line_conductor:531;
	conductor_N overhead_line_conductor:528;
	spacing line_spacing:651;
}

// Line Configuration
object line_configuration:683 {
	conductor_B overhead_line_conductor:517;
	conductor_N overhead_line_conductor:517;
	spacing line_spacing:682;
}

// Line Configuration
object line_configuration:684 {
	conductor_A overhead_line_conductor:531;
	conductor_B overhead_line_conductor:531;
	conductor_C overhead_line_conductor:531;
	conductor_N overhead_line_conductor:528;
	spacing line_spacing:677;
}

// Line Configuration
object line_configuration:685 {
	conductor_C overhead_line_conductor:528;
	conductor_N overhead_line_conductor:512;
	spacing line_spacing:657;
}

// Line Configuration
object line_configuration:686 {
	conductor_C overhead_line_conductor:521;
	conductor_N overhead_line_conductor:521;
	spacing line_spacing:666;
}

// Line Configuration
object line_configuration:687 {
	conductor_A overhead_line_conductor:528;
	conductor_B overhead_line_conductor:528;
	conductor_C overhead_line_conductor:528;
	conductor_N overhead_line_conductor:512;
	spacing line_spacing:653;
}

// Line Configuration
object line_configuration:689 {
	conductor_A overhead_line_conductor:519;
	conductor_N overhead_line_conductor:519;
	spacing line_spacing:688;
}

// Line Configuration
object line_configuration:690 {
	conductor_A overhead_line_conductor:516;
	conductor_N overhead_line_conductor:516;
	spacing line_spacing:659;
}

// Line Configuration
object line_configuration:691 {
	conductor_A overhead_line_conductor:519;
	conductor_N overhead_line_conductor:519;
	spacing line_spacing:651;
}

// Line Configuration
object line_configuration:693 {
	conductor_A overhead_line_conductor:522;
	conductor_C overhead_line_conductor:522;
	conductor_N overhead_line_conductor:522;
	spacing line_spacing:692;
}

// Line Configuration
object line_configuration:694 {
	conductor_A overhead_line_conductor:525;
	conductor_B overhead_line_conductor:525;
	conductor_C overhead_line_conductor:525;
	conductor_N overhead_line_conductor:525;
	spacing line_spacing:653;
}

// Line Configuration
object line_configuration:696 {
	conductor_A overhead_line_conductor:531;
	conductor_B overhead_line_conductor:531;
	conductor_C overhead_line_conductor:531;
	conductor_N overhead_line_conductor:528;
	spacing line_spacing:695;
}

// Line Configuration
object line_configuration:697 {
	conductor_A overhead_line_conductor:521;
	conductor_B overhead_line_conductor:521;
	conductor_C overhead_line_conductor:521;
	conductor_N overhead_line_conductor:521;
	spacing line_spacing:670;
}

// Line Configuration
object line_configuration:698 {
	conductor_C overhead_line_conductor:514;
	conductor_N overhead_line_conductor:514;
	spacing line_spacing:666;
}

// Line Configuration
object line_configuration:699 {
	conductor_A overhead_line_conductor:524;
	conductor_B overhead_line_conductor:524;
	conductor_C overhead_line_conductor:524;
	conductor_N overhead_line_conductor:537;
	spacing line_spacing:670;
}

// Line Configuration
object line_configuration:700 {
	conductor_A overhead_line_conductor:513;
	conductor_N overhead_line_conductor:513;
	spacing line_spacing:659;
}

// Line Configuration
object line_configuration:701 {
	conductor_B overhead_line_conductor:513;
	conductor_N overhead_line_conductor:513;
	spacing line_spacing:663;
}

// Line Configuration
object line_configuration:702 {
	conductor_C overhead_line_conductor:513;
	conductor_N overhead_line_conductor:513;
	spacing line_spacing:666;
}

// Line Configuration
object line_configuration:703 {
	conductor_A overhead_line_conductor:521;
	conductor_N overhead_line_conductor:521;
	spacing line_spacing:659;
}

// Line Configuration
object line_configuration:704 {
	conductor_A overhead_line_conductor:514;
	conductor_B overhead_line_conductor:514;
	conductor_C overhead_line_conductor:514;
	conductor_N overhead_line_conductor:514;
	spacing line_spacing:670;
}

// Line Configuration
object line_configuration:705 {
	conductor_C overhead_line_conductor:516;
	conductor_N overhead_line_conductor:516;
	spacing line_spacing:666;
}

// Line Configuration
object line_configuration:707 {
	conductor_A overhead_line_conductor:531;
	conductor_B overhead_line_conductor:531;
	conductor_C overhead_line_conductor:531;
	conductor_N overhead_line_conductor:528;
	spacing line_spacing:706;
}

// overhead_line: BRIA1010553
object overhead_line:708 {
	phases "AN";
        nominal_voltage 124.00;
	from load:407;
	to load:333;
	length 19.47686586683;
	configuration line_configuration:652;
}

// overhead_line: BRIA1010555
object overhead_line:709 {
	phases "ABCN";
        nominal_voltage 124.00;
	from load:409;
	to load:309;
	length 175.97062191735;
	configuration line_configuration:654;
}

// overhead_line: BRIA1010557
object overhead_line:710 {
	phases "ABCN";
        nominal_voltage 124.00;
	from load:309;
	to load:499;
	length 204.106512353176;
	configuration line_configuration:654;
}

// overhead_line: BRIA1010558
object overhead_line:711 {
	phases "ABCN";
        nominal_voltage 124.00;
	from load:310;
	to load:311;
	length 179.530788014218;
	configuration line_configuration:654;
}

// overhead_line: BRIA1010560
object overhead_line:712 {
	phases "ABCN";
        nominal_voltage 124.00;
	from load:311;
	to load:312;
	length 126.795202156859;
	configuration line_configuration:654;
}

// overhead_line: BRIA1010561
object overhead_line:713 {
	phases "ABCN";
        nominal_voltage 124.00;
	from load:312;
	to load:313;
	length 138.298773837664;
	configuration line_configuration:654;
}

// overhead_line: BRIA1010563
object overhead_line:714 {
	phases "BN";
        nominal_voltage 124.00;
	from load:313;
	to load:340;
	length 12.7552317893399;
	configuration line_configuration:656;
}

// overhead_line: BRIA1010564
object overhead_line:715 {
	phases "BN";
        nominal_voltage 124.00;
	from load:314;
	to load:341;
	length 23.4518813105362;
	configuration line_configuration:656;
}

// overhead_line: BRIA1010565
object overhead_line:716 {
	phases "BN";
        nominal_voltage 124.00;
	from load:314;
	to load:315;
	length 223.429267610587;
	configuration line_configuration:656;
}

// overhead_line: BRIA1010567
object overhead_line:717 {
	phases "BN";
        nominal_voltage 124.00;
	from load:315;
	to load:316;
	length 191.18870113052;
	configuration line_configuration:656;
}

// overhead_line: BRIA1010569
object overhead_line:718 {
	phases "BN";
        nominal_voltage 124.00;
	from load:316;
	to load:317;
	length 227.72470253799;
	configuration line_configuration:656;
}

// overhead_line: BRIA1010571
object overhead_line:719 {
	phases "AN";
        nominal_voltage 124.00;
	from load:409;
	to load:335;
	length 9.9799090676356;
	configuration line_configuration:652;
}

// overhead_line: BRIA1010572
object overhead_line:720 {
	phases "CN";
        nominal_voltage 124.00;
	from load:409;
	to load:336;
	length 5.04189775776021;
	configuration line_configuration:658;
}

// overhead_line: BRIA1010575
object overhead_line:721 {
	phases "AN";
        nominal_voltage 124.00;
	from load:335;
	to load:319;
	length 205.158316427877;
	configuration line_configuration:660;
}

// overhead_line: BRIA1010581
object overhead_line:722 {
	phases "AN";
        nominal_voltage 124.00;
	from load:319;
	to load:320;
	length 186.716605008849;
	configuration line_configuration:660;
}

// overhead_line: BRIA1010584
object overhead_line:723 {
	phases "AN";
        nominal_voltage 124.00;
	from load:320;
	to load:321;
	length 167.709954655412;
	configuration line_configuration:660;
}

// overhead_line: BRIA1010586
object overhead_line:724 {
	phases "AN";
        nominal_voltage 124.00;
	from load:310;
	to load:337;
	length 18.1374755133926;
	configuration line_configuration:652;
}

// overhead_line: BRIA1010588
object overhead_line:725 {
	phases "AN";
        nominal_voltage 124.00;
	from load:322;
	to load:323;
	length 116.794236749954;
	configuration line_configuration:652;
}

// overhead_line: BRIA1010589
object overhead_line:726 {
	phases "AN";
        nominal_voltage 124.00;
	from load:323;
	to load:494;
	length 108.154892307401;
	configuration line_configuration:652;
}

// overhead_line: BRIA1010591
object overhead_line:727 {
	phases "AN";
        nominal_voltage 124.00;
	from load:324;
	to load:482;
	length 126.41029414172;
	configuration line_configuration:652;
}

// overhead_line: BRIA1010593
object overhead_line:728 {
	phases "AN";
        nominal_voltage 124.00;
	from load:323;
	to load:326;
	length 110.431691633357;
	configuration line_configuration:652;
}

// overhead_line: BRIA1010595
object overhead_line:729 {
	phases "AN";
        nominal_voltage 124.00;
	from load:323;
	to load:327;
	length 139.829439632407;
	configuration line_configuration:652;
}

// overhead_line: BRIA1010597
object overhead_line:730 {
	phases "ABCN";
        nominal_voltage 124.00;
	from load:312;
	to load:339;
	length 7.0868461953982;
	configuration line_configuration:662;
}

// overhead_line: BRIA1010599
object overhead_line:731 {
	phases "ABCN";
        nominal_voltage 124.00;
	from load:328;
	to load:329;
	length 93.7602466347382;
	configuration line_configuration:662;
}

// overhead_line: BRIA1010603
object overhead_line:732 {
	phases "AN";
        nominal_voltage 124.00;
	from load:312;
	to load:338;
	length 19.3386153848693;
	configuration line_configuration:652;
}

// overhead_line: BRIA1010606
object overhead_line:733 {
	phases "BN";
        nominal_voltage 124.00;
	from load:341;
	to load:331;
	length 104.627516902579;
	configuration line_configuration:664;
}

// overhead_line: BRIA1010716
object overhead_line:734 {
	phases "ABCN";
        nominal_voltage 124.00;
	from load:404;
	to node:332;
	length 3.1434988467499;
	configuration line_configuration:665;
}

// overhead_line: BRIA1010718
object overhead_line:735 {
	phases "AN";
        nominal_voltage 124.00;
	from load:333;
	to load:308;
	length 139.798603637072;
	configuration line_configuration:652;
}

// overhead_line: BRIA1010720
object overhead_line:736 {
	phases "ABCN";
        nominal_voltage 124.00;
	from load:334;
	to load:407;
	length 106.926253699692;
	configuration line_configuration:654;
}

// overhead_line: BRIA1010724
object overhead_line:737 {
	phases "CN";
        nominal_voltage 124.00;
	from load:336;
	to load:318;
	length 178.909814809713;
	configuration line_configuration:658;
}

// overhead_line: BRIA1010726
object overhead_line:738 {
	phases "AN";
        nominal_voltage 124.00;
	from load:337;
	to load:322;
	length 130.468444713547;
	configuration line_configuration:652;
}

// overhead_line: BRIA1010728
object overhead_line:739 {
	phases "AN";
        nominal_voltage 124.00;
	from load:338;
	to load:330;
	length 130.138482702854;
	configuration line_configuration:652;
}

// overhead_line: BRIA1010730
object overhead_line:740 {
	phases "ABCN";
        nominal_voltage 124.00;
	from load:339;
	to load:328;
	length 237.946988824911;
	configuration line_configuration:662;
}

// overhead_line: BRIA1010732
object overhead_line:741 {
	phases "BN";
        nominal_voltage 124.00;
	from load:340;
	to load:314;
	length 76.1776918401698;
	configuration line_configuration:656;
}

// overhead_line: BRIA1010854
object overhead_line:742 {
	phases "CN";
        nominal_voltage 124.00;
	from load:342;
	to node:447;
	length 218.783617207733;
	configuration line_configuration:667;
}

// overhead_line: BRIA1010857
object overhead_line:743 {
	phases "CN";
        nominal_voltage 124.00;
	from load:343;
	to load:342;
	length 116.721970493144;
	configuration line_configuration:667;
}

// overhead_line: BRIA1010863
object overhead_line:744 {
	phases "CN";
        nominal_voltage 124.00;
	from load:342;
	to load:345;
	length 186.174539893017;
	configuration line_configuration:667;
}

// overhead_line: BRIA1010866
object overhead_line:745 {
	phases "CN";
        nominal_voltage 124.00;
	from load:343;
	to load:346;
	length 401.518968252468;
	configuration line_configuration:667;
}

// overhead_line: BRIA1010869
object overhead_line:746 {
	phases "CN";
        nominal_voltage 124.00;
	from load:346;
	to load:347;
	length 176.378295612641;
	configuration line_configuration:667;
}

// overhead_line: BRIA1010872
object overhead_line:747 {
	phases "AN";
        nominal_voltage 124.00;
	from load:344;
	to load:348;
	length 418.384602711368;
	configuration line_configuration:668;
}

// overhead_line: BRIA1010875
object overhead_line:748 {
	phases "AN";
        nominal_voltage 124.00;
	from load:348;
	to load:349;
	length 170.928577549934;
	configuration line_configuration:668;
}

// overhead_line: BRIA1010878
object overhead_line:749 {
	phases "AN";
        nominal_voltage 124.00;
	from load:348;
	to load:350;
	length 349.024622287598;
	configuration line_configuration:668;
}

// overhead_line: BRIA1010884
object overhead_line:750 {
	phases "BN";
        nominal_voltage 124.00;
	from load:351;
	to load:352;
	length 495.703865032586;
	configuration line_configuration:669;
}

// overhead_line: BRIA1010887
object overhead_line:751 {
	phases "BN";
        nominal_voltage 124.00;
	from load:352;
	to load:353;
	length 279.844324606417;
	configuration line_configuration:669;
}

// overhead_line: BRIA1010890
object overhead_line:752 {
	phases "BN";
        nominal_voltage 124.00;
	from load:353;
	to load:354;
	length 246.900217726265;
	configuration line_configuration:669;
}

// overhead_line: BRIA1010893
object overhead_line:753 {
	phases "BN";
        nominal_voltage 124.00;
	from load:352;
	to load:355;
	length 228.482802264593;
	configuration line_configuration:669;
}

// overhead_line: BRIA1010898
object overhead_line:754 {
	phases "ABCN";
        nominal_voltage 124.00;
	from node:400;
	to load:356;
	length 201.881866199418;
	configuration line_configuration:671;
}

// overhead_line: BRIA1010900
object overhead_line:755 {
	phases "ABCN";
        nominal_voltage 124.00;
	from node:357;
	to node:401;
	length 26.4631901327317;
	configuration line_configuration:672;
}

// overhead_line: BRIA1010902
object overhead_line:756 {
	phases "ABCN";
        nominal_voltage 124.00;
	from load:358;
	to load:359;
	length 35.7214330058914;
	configuration line_configuration:671;
}

// overhead_line: BRIA1010905
object overhead_line:757 {
	phases "AN";
        nominal_voltage 124.00;
	from load:356;
	to load:360;
	length 246.08748011078;
	configuration line_configuration:668;
}

// overhead_line: BRIA1010908
object overhead_line:758 {
	phases "AN";
        nominal_voltage 124.00;
	from load:360;
	to load:361;
	length 265.320670094405;
	configuration line_configuration:668;
}

// overhead_line: BRIA1010911
object overhead_line:759 {
	phases "AN";
        nominal_voltage 124.00;
	from load:360;
	to load:362;
	length 342.995842985496;
	configuration line_configuration:668;
}

// overhead_line: BRIA1010914
object overhead_line:760 {
	phases "AN";
        nominal_voltage 124.00;
	from load:361;
	to load:363;
	length 207.595000238488;
	configuration line_configuration:668;
}

// overhead_line: BRIA1010917
object overhead_line:761 {
	phases "AN";
        nominal_voltage 124.00;
	from load:363;
	to load:364;
	length 270.419269566943;
	configuration line_configuration:668;
}

// overhead_line: BRIA1010920
object overhead_line:762 {
	phases "AN";
        nominal_voltage 124.00;
	from load:364;
	to node:476;
	length 232.103857318394;
	configuration line_configuration:668;
}

// overhead_line: BRIA1010922
object overhead_line:763 {
	phases "BN";
        nominal_voltage 124.00;
	from load:366;
	to node:365;
	length 37.6779310604885;
	configuration line_configuration:669;
}

// overhead_line: BRIA1010925
object overhead_line:764 {
	phases "BN";
        nominal_voltage 124.00;
	from load:367;
	to load:366;
	length 339.429708992313;
	configuration line_configuration:669;
}

// overhead_line: BRIA1010928
object overhead_line:765 {
	phases "BN";
        nominal_voltage 124.00;
	from load:368;
	to load:367;
	length 255.824260289008;
	configuration line_configuration:669;
}

// overhead_line: BRIA1010931
object overhead_line:766 {
	phases "BN";
        nominal_voltage 124.00;
	from load:369;
	to load:368;
	length 148.532663966591;
	configuration line_configuration:669;
}

// overhead_line: BRIA1010935
object overhead_line:767 {
	phases "ABCN";
        nominal_voltage 124.00;
	from load:358;
	to load:370;
	length 170.686114140568;
	configuration line_configuration:671;
}

// overhead_line: BRIA1010939
object overhead_line:768 {
	phases "ABCN";
        nominal_voltage 124.00;
	from load:370;
	to load:371;
	length 193.947950215711;
	configuration line_configuration:671;
}

// overhead_line: BRIA1010942
object overhead_line:769 {
	phases "ABCN";
        nominal_voltage 124.00;
	from load:371;
	to load:372;
	length 339.722380258368;
	configuration line_configuration:671;
}

// overhead_line: BRIA1010945
object overhead_line:770 {
	phases "ABCN";
        nominal_voltage 124.00;
	from load:372;
	to load:373;
	length 281.684143705116;
	configuration line_configuration:671;
}

// overhead_line: BRIA1010948
object overhead_line:771 {
	phases "ABCN";
        nominal_voltage 124.00;
	from load:373;
	to load:374;
	length 309.87574978014;
	configuration line_configuration:671;
}

// overhead_line: BRIA1010951
object overhead_line:772 {
	phases "ABCN";
        nominal_voltage 124.00;
	from load:374;
	to load:375;
	length 160.359706442179;
	configuration line_configuration:671;
}

// overhead_line: BRIA1010953
object overhead_line:773 {
	phases "BN";
        nominal_voltage 124.00;
	from load:375;
	to load:376;
	length 188.843366987623;
	configuration line_configuration:669;
}

// overhead_line: BRIA1010956
object overhead_line:774 {
	phases "BN";
        nominal_voltage 124.00;
	from load:376;
	to load:377;
	length 246.263742427052;
	configuration line_configuration:669;
}

// overhead_line: BRIA1010959
object overhead_line:775 {
	phases "BN";
        nominal_voltage 124.00;
	from load:377;
	to load:378;
	length 323.808725848357;
	configuration line_configuration:669;
}

// overhead_line: BRIA1010962
object overhead_line:776 {
	phases "AN";
        nominal_voltage 124.00;
	from load:372;
	to load:379;
	length 317.666392353778;
	configuration line_configuration:668;
}

// overhead_line: BRIA1010965
object overhead_line:777 {
	phases "AN";
        nominal_voltage 124.00;
	from load:371;
	to load:380;
	length 269.08530860021;
	configuration line_configuration:668;
}

// overhead_line: BRIA1010968
object overhead_line:778 {
	phases "AN";
        nominal_voltage 124.00;
	from load:380;
	to load:381;
	length 370.297448511872;
	configuration line_configuration:668;
}

// overhead_line: BRIA1010971
object overhead_line:779 {
	phases "BCN";
        nominal_voltage 124.00;
	from load:359;
	to load:382;
	length 212.158893666976;
	configuration line_configuration:674;
}

// overhead_line: BRIA1010974
object overhead_line:780 {
	phases "BCN";
        nominal_voltage 124.00;
	from load:382;
	to load:383;
	length 204.971414608956;
	configuration line_configuration:674;
}

// overhead_line: BRIA1010977
object overhead_line:781 {
	phases "BCN";
        nominal_voltage 124.00;
	from load:383;
	to load:384;
	length 155.691233998968;
	configuration line_configuration:674;
}

// overhead_line: BRIA1010980
object overhead_line:782 {
	phases "CN";
        nominal_voltage 124.00;
	from load:382;
	to load:385;
	length 178.147930065104;
	configuration line_configuration:667;
}

// overhead_line: BRIA1010983
object overhead_line:783 {
	phases "CN";
        nominal_voltage 124.00;
	from load:383;
	to load:386;
	length 201.129505497916;
	configuration line_configuration:667;
}

// overhead_line: BRIA1010986
object overhead_line:784 {
	phases "BN";
        nominal_voltage 124.00;
	from load:384;
	to load:387;
	length 179.923674549077;
	configuration line_configuration:669;
}

// overhead_line: BRIA1010989
object overhead_line:785 {
	phases "BN";
        nominal_voltage 124.00;
	from load:387;
	to load:388;
	length 160.747098875824;
	configuration line_configuration:669;
}

// overhead_line: BRIA1010992
object overhead_line:786 {
	phases "BN";
        nominal_voltage 124.00;
	from load:388;
	to load:389;
	length 170.160987760573;
	configuration line_configuration:669;
}

// overhead_line: BRIA1010995
object overhead_line:787 {
	phases "BN";
        nominal_voltage 124.00;
	from load:389;
	to load:390;
	length 318.609843233132;
	configuration line_configuration:669;
}

// overhead_line: BRIA1010998
object overhead_line:788 {
	phases "BN";
        nominal_voltage 124.00;
	from load:390;
	to load:391;
	length 386.915566405771;
	configuration line_configuration:669;
}

// overhead_line: BRIA1011001
object overhead_line:789 {
	phases "BN";
        nominal_voltage 124.00;
	from load:387;
	to load:392;
	length 372.851370891137;
	configuration line_configuration:669;
}

// overhead_line: BRIA1011004
object overhead_line:790 {
	phases "BN";
        nominal_voltage 124.00;
	from load:389;
	to load:393;
	length 319.810082762919;
	configuration line_configuration:669;
}

// overhead_line: BRIA1011007
object overhead_line:791 {
	phases "BN";
        nominal_voltage 124.00;
	from load:393;
	to load:394;
	length 176.172957224098;
	configuration line_configuration:669;
}

// overhead_line: BRIA1011010
object overhead_line:792 {
	phases "BN";
        nominal_voltage 124.00;
	from load:394;
	to load:395;
	length 245.002858754065;
	configuration line_configuration:669;
}

// overhead_line: BRIA1011013
object overhead_line:793 {
	phases "BN";
        nominal_voltage 124.00;
	from load:390;
	to load:396;
	length 145.00178068987;
	configuration line_configuration:669;
}

// overhead_line: BRIA1011016
object overhead_line:794 {
	phases "BN";
        nominal_voltage 124.00;
	from load:396;
	to load:397;
	length 111.153152318375;
	configuration line_configuration:669;
}

// overhead_line: BRIA1011018
object overhead_line:795 {
	phases "ABCN";
        nominal_voltage 124.00;
	from node:449;
	to node:399;
	length 1464.2951928668;
	configuration line_configuration:672;
}

// overhead_line: BRIA1011019
object overhead_line:796 {
	phases "ABCN";
        nominal_voltage 124.00;
	from node:357;
	to node:398;
	length 18.2737545402905;
	configuration line_configuration:672;
}

// overhead_line: BRIA1011033
object overhead_line:797 {
	phases "ABCN";