// $Id: R1-12.47-1.glm 
// 12.5 kV feeder
// *********************************************
// validation tests for taxonomy feeder R1-12.47-1.glm
// The feeder is a static powerflow model. There are no houses or varying loads on the model.
// validates voltages with FBS at selected load, node, meter, triplex_node, and
// triplex_meter objects

clock{
	timezone EST+8EDT;
	timestamp '2000-01-01 0:00:00';
	stoptime '2000-01-01 0:15:00';
}

#set profiler=1
#set relax_naming_rules=1
// *********************************************
// modules

module tape;
module powerflow{
	solver_method FBS;
	default_maximum_voltage_error 1e-9;
};
module assert;
// *********************************************

object regulator:4383 {
	name R1-12-47-1_reg_1;
	from R1-12-47-1_node_617;
	to R1-12-47-1_meter_21;
	phases ABCN;
	configuration regulator_configuration:4384;
	object recorder {
		 property tap_A,tap_B,tap_C,power_in_A.real,power_in_A.imag,power_in_B.real,power_in_B.imag,power_in_C.real,power_in_C.imag,power_in.real,power_in.imag;
		 limit 1440;
		 interval 60;
		 file "R1-12.27-1_reg_output.csv";
	};
}


object regulator_configuration:4384 {
	name feeder_reg_cfg;
	Control OUTPUT_VOLTAGE;
	band_center 7216.0;
	band_width 120;
	connect_type WYE_WYE;
	time_delay 30;
	raise_taps 16;
	lower_taps 16;
	regulation 0.10;
	tap_pos_A 0;
	tap_pos_B 0;
	tap_pos_C 0;
}


object capacitor:4380 {
	name R1-12-47-1_cap_1;
	phases ABCN;
	pt_phase B;
	parent R1-12-47-1_node_422;
	phases_connected ABC;
	control VOLT;
	voltage_set_high 7300; 
	voltage_set_low 7100; 
	capacitor_A 0.15 MVAr;
	capacitor_B 0.15 MVAr;
	capacitor_C 0.15 MVAr;
	control_level INDIVIDUAL;
	time_delay 30.0;
	dwell_time 30.0;
	cap_nominal_voltage 7220;
	nominal_voltage 7216.88;
	object recorder {
		property "switchA,switchB,switchC,voltage_A.real,voltage_A.imag,voltage_B.real,voltage_B.imag,voltage_C.real,voltage_C.imag";
		file R1-12.47-1_capacitor1.csv;
		interval 60;
		limit 1440;
	};
	object recorder {
		property voltage_A,voltage_B,voltage_C,voltage_AB,voltage_BC,voltage_CA;
		interval 60;
		limit 1440;
		file "capacitor_4380.csv";
	};
	object complex_assert{
		target voltage_A;
		value +7074.77-16.5866j;
		within 100;
	};
	object complex_assert{
		target voltage_B;
		value -3714.04-5856.79j;
		within 100;
	};
	object complex_assert{
		target voltage_C;
		value -3109.86+6152.68j;
		within 100;
	};
	object complex_assert{
		target voltage_AB;
		value +10788.8+5840.21j;
		within 100;
	};
	object complex_assert{
		target voltage_BC;
		value -604.171-12009.5j;
		within 100;
	};
	object complex_assert{
		target voltage_CA;
		value -10184.6+6169.27j;
		within 100;
	};
}

object capacitor:4381 {
	name R1-12-47-1_cap_2;
	phases ABCN;
	pt_phase B;
	parent R1-12-47-1_node_216;
	phases_connected ABC;
	control VOLT;
	voltage_set_high 7300; 
	voltage_set_low 7100; 
	capacitor_A 0.3 MVAr;
	capacitor_B 0.3 MVAr;
	capacitor_C 0.3 MVAr;
	control_level INDIVIDUAL;
	time_delay 30.0;
	dwell_time 30.0;
	cap_nominal_voltage 7220;
	nominal_voltage 7216.88;
	 object recorder {
		 property "switchA,switchB,switchC,voltage_A.real,voltage_A.imag,voltage_B.real,voltage_B.imag,voltage_C.real,voltage_C.imag";
		 file R1-12.47-1_capacitor2.csv;
		 interval 60;
		 limit 1440;
	 };
	 object recorder {
		 property voltage_A,voltage_B,voltage_C,voltage_AB,voltage_BC,voltage_CA;
		 interval 60;
		 limit 1440;
		 file "capacitor_4381.csv";
	 };
		object complex_assert{
		target voltage_A;
		value +7106.03-6.07231j;
		within 100;
	};
	object complex_assert{
		target voltage_B;
		value -3685.4-5887.75j;
		within 100;
	};
	object complex_assert{
		target voltage_C;
		value -3130.34+6153j;
		within 100;
	};
}


object fuse:4249 {
	name R1-12-47-1_fuse_1;
	phases AN;
	from R1-12-47-1_node_596;
	to R1-12-47-1_node_599;
	current_limit 40;
	status CLOSED;
}

object fuse:4250 {
	name R1-12-47-1_fuse_2;
	phases AN;
	from R1-12-47-1_node_594;
	to R1-12-47-1_node_595;
	current_limit 65;
	status CLOSED;
}

object fuse:4251 {
	name R1-12-47-1_fuse_3;
	phases AN;
	from R1-12-47-1_node_508;
	to R1-12-47-1_node_510;
	current_limit 15;
	status CLOSED;
}

object fuse:4252 {
	name R1-12-47-1_fuse_4;
	phases AN;
	from R1-12-47-1_node_503;
	to R1-12-47-1_node_511;
	current_limit 40;
	status CLOSED;
}

object fuse:4253 {
	name R1-12-47-1_fuse_5;
	phases AN;
	from R1-12-47-1_node_512;
	to R1-12-47-1_node_513;
	current_limit 25;
	status CLOSED;
}

object fuse:4254 {
	name R1-12-47-1_fuse_6;
	phases AN;
	from R1-12-47-1_node_474;
	to R1-12-47-1_node_477;
	current_limit 40;
	status CLOSED;
}

object fuse:4255 {
	name R1-12-47-1_fuse_7;
	phases AN;
	from R1-12-47-1_node_474;
	to R1-12-47-1_node_480;
	current_limit 40;
	status CLOSED;
}

object fuse:4256 {
	name R1-12-47-1_fuse_8;
	phases AN;
	from R1-12-47-1_node_522;
	to R1-12-47-1_node_524;
	current_limit 25;
	status CLOSED;
}

object fuse:4257 {
	name R1-12-47-1_fuse_9;
	phases AN;
	from R1-12-47-1_node_576;
	to R1-12-47-1_node_577;
	current_limit 65;
	status CLOSED;
}

object fuse:4258 {
	name R1-12-47-1_fuse_10;
	phases AN;
	from R1-12-47-1_node_515;
	to R1-12-47-1_node_518;
	current_limit 6;
	status CLOSED;
}

object fuse:4259 {
	name R1-12-47-1_fuse_11;
	phases AN;
	from R1-12-47-1_node_580;
	to R1-12-47-1_node_581;
	current_limit 10;
	status CLOSED;
}

object fuse:4260 {
	name R1-12-47-1_fuse_12;
	phases BN;
	from R1-12-47-1_node_562;
	to R1-12-47-1_node_574;
	current_limit 25;
	status CLOSED;
}

object fuse:4261 {
	name R1-12-47-1_fuse_13;
	phases CN;
	from R1-12-47-1_node_561;
	to R1-12-47-1_node_567;
	current_limit 65;
	status CLOSED;
}

object fuse:4262 {
	name R1-12-47-1_fuse_14;
	phases AN;
	from R1-12-47-1_node_485;
	to R1-12-47-1_node_487;
	current_limit 15;
	status CLOSED;
}

object fuse:4263 {
	name R1-12-47-1_fuse_15;
	phases AN;
	from R1-12-47-1_node_560;
	to R1-12-47-1_node_566;
	current_limit 25;
	status CLOSED;
}

object fuse:4264 {
	name R1-12-47-1_fuse_16;
	phases AN;
	from R1-12-47-1_node_569;
	to R1-12-47-1_node_570;
	current_limit 40;
	status CLOSED;
}

object fuse:4265 {
	name R1-12-47-1_fuse_17;
	phases AN;
	from R1-12-47-1_node_496;
	to R1-12-47-1_node_498;
	current_limit 25;
	status CLOSED;
}

object fuse:4266 {
	name R1-12-47-1_fuse_18;
	phases AN;
	from R1-12-47-1_node_490;
	to R1-12-47-1_node_492;
	current_limit 25;
	status CLOSED;
}

object fuse:4267 {
	name R1-12-47-1_fuse_19;
	phases CN;
	from R1-12-47-1_node_559;
	to R1-12-47-1_node_563;
	current_limit 25;
	status CLOSED;
}

object fuse:4268 {
	name R1-12-47-1_fuse_20;
	phases AN;
	from R1-12-47-1_node_417;
	to R1-12-47-1_node_418;
	current_limit 25;
	status CLOSED;
}

object fuse:4269 {
	name R1-12-47-1_fuse_21;
	phases AN;
	from R1-12-47-1_node_552;
	to R1-12-47-1_node_553;
	current_limit 25;
	status CLOSED;
}

object fuse:4270 {
	name R1-12-47-1_fuse_22;
	phases AN;
	from R1-12-47-1_node_461;
	to R1-12-47-1_node_466;
	current_limit 15;
	status CLOSED;
}

object fuse:4271 {
	name R1-12-47-1_fuse_23;
	phases CN;
	from R1-12-47-1_node_551;
	to R1-12-47-1_node_555;
	current_limit 25;
	status CLOSED;
}

object fuse:4272 {
	name R1-12-47-1_fuse_24;
	phases ABCN;
	from R1-12-47-1_node_456;
	to R1-12-47-1_node_457;
	current_limit 65;
	status CLOSED;
}

object fuse:4273 {
	name R1-12-47-1_fuse_25;
	phases AN;
	from R1-12-47-1_node_532;
	to R1-12-47-1_node_534;
	current_limit 15;
	status CLOSED;
}

object fuse:4274 {
	name R1-12-47-1_fuse_26;
	phases AN;
	from R1-12-47-1_node_547;
	to R1-12-47-1_node_558;
	current_limit 15;
	status CLOSED;
}

object fuse:4275 {
	name R1-12-47-1_fuse_27;
	phases CN;
	from R1-12-47-1_node_546;
	to R1-12-47-1_node_548;
	current_limit 15;
	status CLOSED;
}

object fuse:4276 {
	name R1-12-47-1_fuse_28;
	phases BN;
	from R1-12-47-1_node_449;
	to R1-12-47-1_node_450;
	current_limit 40;
	status CLOSED;
}

object fuse:4277 {
	name R1-12-47-1_fuse_29;
	phases BN;
	from R1-12-47-1_node_546;
	to R1-12-47-1_node_556;
	current_limit 15;
	status CLOSED;
}

object fuse:4278 {
	name R1-12-47-1_fuse_30;
	phases BN;
	from R1-12-47-1_node_446;
	to R1-12-47-1_node_447;
	current_limit 15;
	status CLOSED;
}

object fuse:4279 {
	name R1-12-47-1_fuse_31;
	phases AN;
	from R1-12-47-1_node_326;
	to R1-12-47-1_node_327;
	current_limit 25;
	status CLOSED;
}

object fuse:4280 {
	name R1-12-47-1_fuse_32;
	phases BN;
	from R1-12-47-1_node_539;
	to R1-12-47-1_node_541;
	current_limit 40;
	status CLOSED;
}

object fuse:4281 {
	name R1-12-47-1_fuse_33;
	phases AN;
	from R1-12-47-1_node_540;
	to R1-12-47-1_node_545;
	current_limit 25;
	status CLOSED;
}

object fuse:4282 {
	name R1-12-47-1_fuse_34;
	phases ABCN;
	from R1-12-47-1_node_434;
	to R1-12-47-1_node_435;
	current_limit 65;
	status CLOSED;
}

object fuse:4283 {
	name R1-12-47-1_fuse_35;
	phases AN;
	from R1-12-47-1_node_355;
	to R1-12-47-1_node_356;
	current_limit 25;
	status CLOSED;
}

object fuse:4284 {
	name R1-12-47-1_fuse_36;
	phases CN;
	from R1-12-47-1_node_359;
	to R1-12-47-1_node_419;
	current_limit 25;
	status CLOSED;
}

object fuse:4285 {
	name R1-12-47-1_fuse_37;
	phases AN;
	from R1-12-47-1_node_229;
	to R1-12-47-1_node_232;
	current_limit 10;
	status CLOSED;
}

object fuse:4286 {
	name R1-12-47-1_fuse_38;
	phases AN;
	from R1-12-47-1_node_538;
	to R1-12-47-1_node_543;
	current_limit 40;
	status CLOSED;
}

object fuse:4287 {
	name R1-12-47-1_fuse_39;
	phases AN;
	from R1-12-47-1_node_543;
	to R1-12-47-1_node_544;
	current_limit 25;
	status CLOSED;
}

object fuse:4288 {
	name R1-12-47-1_fuse_40;
	phases AN;
	from R1-12-47-1_node_342;
	to R1-12-47-1_node_354;
	current_limit 15;
	status CLOSED;
}

object fuse:4289 {
	name R1-12-47-1_fuse_41;
	phases AN;
	from R1-12-47-1_node_335;
	to R1-12-47-1_node_336;
	current_limit 25;
	status CLOSED;
}

object fuse:4290 {
	name R1-12-47-1_fuse_42;
	phases CN;
	from R1-12-47-1_node_536;
	to R1-12-47-1_node_537;
	current_limit 25;
	status CLOSED;
}

object fuse:4291 {
	name R1-12-47-1_fuse_43;
	phases AN;
	from R1-12-47-1_node_346;
	to R1-12-47-1_node_410;
	current_limit 65;
	status CLOSED;
}

object fuse:4292 {
	name R1-12-47-1_fuse_44;
	phases CN;
	from R1-12-47-1_node_345;
	to R1-12-47-1_node_358;
	current_limit 65;
	status CLOSED;
}

object fuse:4293 {
	name R1-12-47-1_fuse_45;
	phases CN;
	from R1-12-47-1_node_441;
	to R1-12-47-1_node_442;
	current_limit 15;
	status CLOSED;
}

object fuse:4294 {
	name R1-12-47-1_fuse_46;
	phases AN;
	from R1-12-47-1_node_420;
	to R1-12-47-1_node_421;
	current_limit 25;
	status CLOSED;
}

object fuse:4295 {
	name R1-12-47-1_fuse_47;
	phases ABCN;
	from R1-12-47-1_node_439;
	to R1-12-47-1_node_440;
	current_limit 65;
	status CLOSED;
}

object fuse:4296 {
	name R1-12-47-1_fuse_48;
	phases ABCN;
	from R1-12-47-1_node_217;
	to R1-12-47-1_node_334;
	current_limit 100;
	status CLOSED;
}

object fuse:4297 {
	name R1-12-47-1_fuse_49;
	phases BN;
	from R1-12-47-1_node_433;
	to R1-12-47-1_node_432;
	current_limit 15;
	status CLOSED;
}

object fuse:4298 {
	name R1-12-47-1_fuse_50;
	phases AN;
	from R1-12-47-1_node_233;
	to R1-12-47-1_node_237;
	current_limit 15;
	status CLOSED;
}

object fuse:4299 {
	name R1-12-47-1_fuse_51;
	phases ABCN;
	from R1-12-47-1_node_234;
	to R1-12-47-1_node_240;
	current_limit 100;
	status CLOSED;
}

object fuse:4300 {
	name R1-12-47-1_fuse_52;
	phases CN;
	from R1-12-47-1_node_420;
	to R1-12-47-1_node_423;
	current_limit 40;
	status CLOSED;
}

object fuse:4301 {
	name R1-12-47-1_fuse_53;
	phases AN;
	from R1-12-47-1_node_338;
	to R1-12-47-1_node_347;
	current_limit 40;
	status CLOSED;
}

object fuse:4302 {
	name R1-12-47-1_fuse_54;
	phases AN;
	from R1-12-47-1_node_347;
	to R1-12-47-1_node_353;
	current_limit 40;
	status CLOSED;
}

object fuse:4303 {
	name R1-12-47-1_fuse_55;
	phases CN;
	from R1-12-47-1_node_331;
	to R1-12-47-1_node_332;
	current_limit 15;
	status CLOSED;
}

object fuse:4304 {
	name R1-12-47-1_fuse_56;
	phases AN;
	from R1-12-47-1_node_361;
	to R1-12-47-1_node_365;
	current_limit 40;
	status CLOSED;
}

object fuse:4305 {
	name R1-12-47-1_fuse_57;
	phases CN;
	from R1-12-47-1_node_229;
	to R1-12-47-1_node_230;
	current_limit 25;
	status CLOSED;
}

object fuse:4306 {
	name R1-12-47-1_fuse_58;
	phases AN;
	from R1-12-47-1_node_348;
	to R1-12-47-1_node_352;
	current_limit 25;
	status CLOSED;
}

object fuse:4307 {
	name R1-12-47-1_fuse_59;
	phases ABCN;
	from R1-12-47-1_node_361;
	to R1-12-47-1_node_362;
	current_limit 65;
	status CLOSED;
}

object fuse:4308 {
	name R1-12-47-1_fuse_60;
	phases CN;
	from R1-12-47-1_node_218;
	to R1-12-47-1_node_219;
	current_limit 100;
	status CLOSED;
}

object fuse:4309 {
	name R1-12-47-1_fuse_61;
	phases AN;
	from R1-12-47-1_node_350;
	to R1-12-47-1_node_351;
	current_limit 25;
	status CLOSED;
}

object fuse:4310 {
	name R1-12-47-1_fuse_62;
	phases BN;
	from R1-12-47-1_node_211;
	to R1-12-47-1_node_213;
	current_limit 25;
	status CLOSED;
}

object fuse:4311 {
	name R1-12-47-1_fuse_63;
	phases AN;
	from R1-12-47-1_node_374;
	to R1-12-47-1_node_381;
	current_limit 15;
	status CLOSED;
}

object fuse:4312 {
	name R1-12-47-1_fuse_64;
	phases CN;
	from R1-12-47-1_node_368;
	to R1-12-47-1_node_370;
	current_limit 25;
	status CLOSED;
}

object fuse:4313 {
	name R1-12-47-1_fuse_65;
	phases AN;
	from R1-12-47-1_node_371;
	to R1-12-47-1_node_372;
	current_limit 40;
	status CLOSED;
}

object fuse:4314 {
	name R1-12-47-1_fuse_66;
	phases BN;
	from R1-12-47-1_node_203;
	to R1-12-47-1_node_208;
	current_limit 40;
	status CLOSED;
}

object fuse:4315 {
	name R1-12-47-1_fuse_67;
	phases AN;
	from R1-12-47-1_node_372;
	to R1-12-47-1_node_380;
	current_limit 25;
	status CLOSED;
}

object fuse:4316 {
	name R1-12-47-1_fuse_68;
	phases AN;
	from R1-12-47-1_node_383;
	to R1-12-47-1_node_384;
	current_limit 25;
	status CLOSED;
}

object fuse:4317 {
	name R1-12-47-1_fuse_69;
	phases AN;
	from R1-12-47-1_node_391;
	to R1-12-47-1_node_394;
	current_limit 25;
	status CLOSED;
}

object fuse:4318 {
	name R1-12-47-1_fuse_70;
	phases BN;
	from R1-12-47-1_node_211;
	to R1-12-47-1_node_214;
	current_limit 25;
	status CLOSED;
}

object fuse:4319 {
	name R1-12-47-1_fuse_71;
	phases BN;
	from R1-12-47-1_node_393;
	to R1-12-47-1_node_396;
	current_limit 25;
	status CLOSED;
}

object fuse:4320 {
	name R1-12-47-1_fuse_72;
	phases BN;
	from R1-12-47-1_node_205;
	to R1-12-47-1_node_206;
	current_limit 40;
	status CLOSED;
}

object fuse:4321 {
	name R1-12-47-1_fuse_73;
	phases BN;
	from R1-12-47-1_node_175;
	to R1-12-47-1_node_205;
	current_limit 100;
	status CLOSED;
}

object fuse:4322 {
	name R1-12-47-1_fuse_74;
	phases AN;
	from R1-12-47-1_node_140;
	to R1-12-47-1_node_163;
	current_limit 65;
	status CLOSED;
}

object fuse:4323 {
	name R1-12-47-1_fuse_75;
	phases CN;
	from R1-12-47-1_node_140;
	to R1-12-47-1_node_167;
	current_limit 100;
	status CLOSED;
}

object fuse:4324 {
	name R1-12-47-1_fuse_76;
	phases CN;
	from R1-12-47-1_node_168;
	to R1-12-47-1_node_170;
	current_limit 40;
	status CLOSED;
}

object fuse:4325 {
	name R1-12-47-1_fuse_77;
	phases AN;
	from R1-12-47-1_node_159;
	to R1-12-47-1_node_160;
	current_limit 15;
	status CLOSED;
}

object fuse:4326 {
	name R1-12-47-1_fuse_78;
	phases BN;
	from R1-12-47-1_node_403;
	to R1-12-47-1_node_405;
	current_limit 25;
	status CLOSED;
}

object fuse:4327 {
	name R1-12-47-1_fuse_79;
	phases CN;
	from R1-12-47-1_node_173;
	to R1-12-47-1_node_182;
	current_limit 65;
	status CLOSED;
}

object fuse:4328 {
	name R1-12-47-1_fuse_80;
	phases CN;
	from R1-12-47-1_node_182;
	to R1-12-47-1_node_185;
	current_limit 25;
	status CLOSED;
}

object fuse:4329 {
	name R1-12-47-1_fuse_81;
	phases AN;
	from R1-12-47-1_node_133;
	to R1-12-47-1_node_141;
	current_limit 65;
	status CLOSED;
}

object fuse:4330 {
	name R1-12-47-1_fuse_82;
	phases AN;
	from R1-12-47-1_node_404;
	to R1-12-47-1_node_408;
	current_limit 25;
	status CLOSED;
}

object fuse:4331 {
	name R1-12-47-1_fuse_83;
	phases CN;
	from R1-12-47-1_node_183;
	to R1-12-47-1_node_186;
	current_limit 25;
	status CLOSED;
}

object fuse:4332 {
	name R1-12-47-1_fuse_84;
	phases AN;
	from R1-12-47-1_node_147;
	to R1-12-47-1_node_149;
	current_limit 40;
	status CLOSED;
}

object fuse:4333 {
	name R1-12-47-1_fuse_85;
	phases BN;
	from R1-12-47-1_node_134;
	to R1-12-47-1_node_135;
	current_limit 25;
	status CLOSED;
}

object fuse:4334 {
	name R1-12-47-1_fuse_86;
	phases CN;
	from R1-12-47-1_node_189;
	to R1-12-47-1_node_190;
	current_limit 15;
	status CLOSED;
}

object fuse:4335 {
	name R1-12-47-1_fuse_87;
	phases BN;
	from R1-12-47-1_node_74;
	to R1-12-47-1_node_78;
	current_limit 25;
	status CLOSED;
}

object fuse:4336 {
	name R1-12-47-1_fuse_88;
	phases CN;
	from R1-12-47-1_node_191;
	to R1-12-47-1_node_193;
	current_limit 25;
	status CLOSED;
}

object fuse:4337 {
	name R1-12-47-1_fuse_89;
	phases AN;
	from R1-12-47-1_node_67;
	to R1-12-47-1_node_72;
	current_limit 15;
	status CLOSED;
}

object fuse:4338 {
	name R1-12-47-1_fuse_90;
	phases AN;
	from R1-12-47-1_node_23;
	to R1-12-47-1_node_24;
	current_limit 15;
	status CLOSED;
}

object fuse:4339 {
	name R1-12-47-1_fuse_91;
	phases BN;
	from R1-12-47-1_node_44;
	to R1-12-47-1_node_128;
	current_limit 25;
	status CLOSED;
}

object fuse:4340 {
	name R1-12-47-1_fuse_92;
	phases CN;
	from R1-12-47-1_node_44;
	to R1-12-47-1_node_45;
	current_limit 25;
	status CLOSED;
}

object fuse:4341 {
	name R1-12-47-1_fuse_93;
	phases BN;
	from R1-12-47-1_node_44;
	to R1-12-47-1_node_127;
	current_limit 10;
	status CLOSED;
}

object fuse:4342 {
	name R1-12-47-1_fuse_94;
	phases AN;
	from R1-12-47-1_node_64;
	to R1-12-47-1_node_70;
	current_limit 25;
	status CLOSED;
}

object fuse:4343 {
	name R1-12-47-1_fuse_95;
	phases CN;
	from R1-12-47-1_node_195;
	to R1-12-47-1_node_197;
	current_limit 40;
	status CLOSED;
}

object fuse:4344 {
	name R1-12-47-1_fuse_96;
	phases CN;
	from R1-12-47-1_node_195;
	to R1-12-47-1_node_196;
	current_limit 25;
	status CLOSED;
}

object fuse:4345 {
	name R1-12-47-1_fuse_97;
	phases AN;
	from R1-12-47-1_node_63;
	to R1-12-47-1_node_69;
	current_limit 40;
	status CLOSED;
}

object fuse:4346 {
	name R1-12-47-1_fuse_98;
	phases ABCN;
	from R1-12-47-1_node_61;
	to R1-12-47-1_node_62;
	current_limit 65;
	status CLOSED;
}

object fuse:4347 {
	name R1-12-47-1_fuse_99;
	phases AN;
	from R1-12-47-1_node_62;
	to R1-12-47-1_node_68;
	current_limit 25;
	status CLOSED;
}

object fuse:4348 {
	name R1-12-47-1_fuse_100;
	phases AN;
	from R1-12-47-1_node_6;
	to R1-12-47-1_node_28;
	current_limit 40;
	status CLOSED;
}

object fuse:4349 {
	name R1-12-47-1_fuse_101;
	phases AN;
	from R1-12-47-1_node_21;
	to R1-12-47-1_node_22;
	current_limit 6;
	status CLOSED;
}

object fuse:4350 {
	name R1-12-47-1_fuse_102;
	phases AN;
	from R1-12-47-1_node_13;
	to R1-12-47-1_node_34;
	current_limit 25;
	status CLOSED;
}

object fuse:4351 {
	name R1-12-47-1_fuse_103;
	phases ABCN;
	from R1-12-47-1_node_47;
	to R1-12-47-1_node_48;
	current_limit 100;
	status CLOSED;
}

object fuse:4352 {
	name R1-12-47-1_fuse_104;
	phases BN;
	from R1-12-47-1_node_14;
	to R1-12-47-1_node_38;
	current_limit 15;
	status CLOSED;
}

object fuse:4353 {
	name R1-12-47-1_fuse_105;
	phases AN;
	from R1-12-47-1_node_11;
	to R1-12-47-1_node_31;
	current_limit 25;
	status CLOSED;
}

object fuse:4354 {
	name R1-12-47-1_fuse_106;
	phases ABCN;
	from R1-12-47-1_node_61;
	to R1-12-47-1_node_79;
	current_limit 65;
	status CLOSED;
}

object fuse:4355 {
	name R1-12-47-1_fuse_107;
	phases AN;
	from R1-12-47-1_node_25;
	to R1-12-47-1_node_26;
	current_limit 25;
	status CLOSED;
}

object fuse:4356 {
	name R1-12-47-1_fuse_108;
	phases BN;
	from R1-12-47-1_node_7;
	to R1-12-47-1_node_29;
	current_limit 25;
	status CLOSED;
}

object fuse:4357 {
	name R1-12-47-1_fuse_109;
	phases CN;
	from R1-12-47-1_node_52;
	to R1-12-47-1_node_54;
	current_limit 10;
	status CLOSED;
}

object fuse:4358 {
	name R1-12-47-1_fuse_110;
	phases AN;
	from R1-12-47-1_node_50;
	to R1-12-47-1_node_53;
	current_limit 25;
	status CLOSED;
}

object fuse:4359 {
	name R1-12-47-1_fuse_111;
	phases BN;
	from R1-12-47-1_node_80;
	to R1-12-47-1_node_84;
	current_limit 100;
	status CLOSED;
}

object fuse:4360 {
	name R1-12-47-1_fuse_112;
	phases AN;
	from R1-12-47-1_node_117;
	to R1-12-47-1_node_119;
	current_limit 25;
	status CLOSED;
}

object fuse:4361 {
	name R1-12-47-1_fuse_113;
	phases CN;
	from R1-12-47-1_node_88;
	to R1-12-47-1_node_91;
	current_limit 25;
	status CLOSED;
}

object fuse:4362 {
	name R1-12-47-1_fuse_114;
	phases AN;
	from R1-12-47-1_node_88;
	to R1-12-47-1_node_106;
	current_limit 40;
	status CLOSED;
}

object fuse:4363 {
	name R1-12-47-1_fuse_115;
	phases AN;
	from R1-12-47-1_node_121;
	to R1-12-47-1_node_125;
	current_limit 25;
	status CLOSED;
}

object fuse:4364 {
	name R1-12-47-1_fuse_116;
	phases CN;
	from R1-12-47-1_node_89;
	to R1-12-47-1_node_93;
	current_limit 65;
	status CLOSED;
}

object fuse:4365 {
	name R1-12-47-1_fuse_117;
	phases AN;
	from R1-12-47-1_node_117;
	to R1-12-47-1_node_118;
	current_limit 25;
	status CLOSED;
}

object fuse:4366 {
	name R1-12-47-1_fuse_118;
	phases AN;
	from R1-12-47-1_node_107;
	to R1-12-47-1_node_108;
	current_limit 40;
	status CLOSED;
}

object fuse:4367 {
	name R1-12-47-1_fuse_119;
	phases CN;
	from R1-12-47-1_node_101;
	to R1-12-47-1_node_102;
	current_limit 25;
	status CLOSED;
}

object fuse:4368 {
	name R1-12-47-1_fuse_120;
	phases AN;
	from R1-12-47-1_node_123;
	to R1-12-47-1_node_124;
	current_limit 25;
	status CLOSED;
}

object fuse:4369 {
	name R1-12-47-1_fuse_121;
	phases CN;
	from R1-12-47-1_node_90;
	to R1-12-47-1_node_97;
	current_limit 65;
	status CLOSED;
}

object fuse:4370 {
	name R1-12-47-1_fuse_122;
	phases CN;
	from R1-12-47-1_node_103;
	to R1-12-47-1_node_105;
	current_limit 40;
	status CLOSED;
}


object line_configuration:16 {
	conductor_A underground_line_conductor:2;
	conductor_N underground_line_conductor:2;
	spacing line_spacing:11;
}

object line_configuration:17 {
	conductor_B underground_line_conductor:2;
	conductor_N underground_line_conductor:2;
	spacing line_spacing:12;
}

object line_configuration:18 {
	conductor_A overhead_line_conductor:3;
	conductor_N overhead_line_conductor:3;
	spacing line_spacing:11;
}

object line_configuration:19 {
	conductor_A overhead_line_conductor:3;
	conductor_B overhead_line_conductor:3;
	conductor_C overhead_line_conductor:3;
	conductor_N overhead_line_conductor:3;
	spacing line_spacing:13;
}

object line_configuration:20 {
	conductor_C underground_line_conductor:2;
	conductor_N underground_line_conductor:2;
	spacing line_spacing:14;
}

object line_configuration:21 {
	conductor_C overhead_line_conductor:3;
	conductor_N overhead_line_conductor:3;
	spacing line_spacing:14;
}

object line_configuration:22 {
	conductor_A overhead_line_conductor:4;
	conductor_B overhead_line_conductor:4;
	conductor_C overhead_line_conductor:4;
	conductor_N overhead_line_conductor:4;
	spacing line_spacing:13;
}

object line_configuration:23 {
	conductor_A overhead_line_conductor:5;
	conductor_N overhead_line_conductor:5;
	spacing line_spacing:11;
}

object line_configuration:24 {
	conductor_C overhead_line_conductor:6;
	conductor_N overhead_line_conductor:6;
	spacing line_spacing:14;
}

object line_configuration:25 {
	conductor_A underground_line_conductor:7;
	conductor_B underground_line_conductor:7;
	conductor_C underground_line_conductor:7;
	conductor_N underground_line_conductor:7;
	spacing line_spacing:13;
}

object line_configuration:26 {
	conductor_A underground_line_conductor:8;
	conductor_B underground_line_conductor:8;
	conductor_C underground_line_conductor:8;
	conductor_N underground_line_conductor:8;
	spacing line_spacing:13;
}

object line_configuration:27 {
	conductor_A overhead_line_conductor:9;
	conductor_N overhead_line_conductor:9;
	spacing line_spacing:11;
}

object line_configuration:28 {
	conductor_B overhead_line_conductor:3;
	conductor_N overhead_line_conductor:3;
	spacing line_spacing:12;
}

object line_configuration:29 {
	conductor_A overhead_line_conductor:6;
	conductor_N overhead_line_conductor:6;
	spacing line_spacing:11;
}

object line_configuration:30 {
	conductor_C overhead_line_conductor:9;
	conductor_N overhead_line_conductor:9;
	spacing line_spacing:14;
}

object line_configuration:31 {
	conductor_A underground_line_conductor:2;
	conductor_C underground_line_conductor:2;
	conductor_N underground_line_conductor:2;
	spacing line_spacing:15;
}

object line_configuration:32 {
	conductor_A overhead_line_conductor:10;
	conductor_B overhead_line_conductor:10;
	conductor_C overhead_line_conductor:10;
	conductor_N overhead_line_conductor:10;
	spacing line_spacing:13;
}

object line_configuration:33 {
	conductor_B overhead_line_conductor:9;
	conductor_N overhead_line_conductor:9;
	spacing line_spacing:12;
}

object line_configuration:34 {
	conductor_B overhead_line_conductor:5;
	conductor_N overhead_line_conductor:5;
	spacing line_spacing:12;
}


object line_spacing:11 {
	distance_AN 51.6 in;
}

object line_spacing:12 {
	distance_BN 51.6 in;
}

object line_spacing:13 {
	distance_AB 57.6 in;
	distance_BC 57.6 in;
	distance_AC 57.6 in;
	distance_AN 51.6 in;
	distance_BN 51.6 in;
	distance_CN 51.6 in;
}

object line_spacing:14 {
	distance_CN 51.6 in;
}

object line_spacing:15 {
	distance_AC 57.6 in;
	distance_AN 51.6 in;
	distance_CN 51.6 in;
}


object load:651 {
	name R1-12-47-1_load_1;
	parent R1-12-47-1_meter_1;
	phases CN;
	voltage_C -3608.44+6250j;
	constant_power_C 66446.0143+25680.8384j;
	nominal_voltage 7216.88;
	load_class C;
	 object recorder {
		 property voltage_A,voltage_B,voltage_C,voltage_AB,voltage_BC,voltage_CA;
		 interval 60;
		 limit 1440;
		 file "load_651.csv";
	 };
	object complex_assert{
		target voltage_A;
		value +0+0j;
		within 3;
	};
	object complex_assert{
		target voltage_B;
		value +0+0j;
		within 3;
	};
	object complex_assert{
		target voltage_C;
		value +261.63+115.775d;
		within 3;
	};
	object complex_assert{
		target voltage_AB;
		value +0+0j;
		within 3;
	};
	object complex_assert{
		target voltage_BC;
		value +112.704-236.597j;
		within 3;
	};
	object complex_assert{
		target voltage_CA;
		value +262.07+115.471d;
		within 3;
	};
}

object load:652 {
	name R1-12-47-1_load_2;
	parent R1-12-47-1_meter_2;
	phases AN;
	voltage_A 7216.88+0.0j;
	constant_power_A 8271.7473+9205.9446j;
	nominal_voltage 7216.88;
	load_class C;
}

object load:653 {
	name R1-12-47-1_load_3;
	parent R1-12-47-1_meter_3;
	phases CN;
	voltage_C -3608.44+6250j;
	constant_power_C 36160.4072+13975.7002j;
	nominal_voltage 7216.88;
	load_class C;
}

object load:654 {
	name R1-12-47-1_load_4;
	parent R1-12-47-1_meter_4;
	phases ABCN;
	voltage_A 7216.88+0.0j;
	voltage_B -3608.44-6250j;
	voltage_C -3608.44+6250j;
	constant_power_A 0+0j;
	constant_power_B 8339.1026+3255.4855j;
	constant_power_C 0+0j;
	nominal_voltage 7216.88;
	load_class C;
}

object load:655 {
	name R1-12-47-1_load_5;
	parent R1-12-47-1_meter_5;
	phases ABCN;
	voltage_A 7216.88+0.0j;
	voltage_B -3608.44-6250j;
	voltage_C -3608.44+6250j;
	constant_power_A 0+0j;
	constant_power_B 20326.5626+7935.246j;
	constant_power_C 0+0j;
	nominal_voltage 7216.88;
	load_class C;
}

object load:656 {
	name R1-12-47-1_load_6;
	parent R1-12-47-1_meter_6;
	phases ABCN;
	voltage_A 7216.88+0.0j;
	voltage_B -3608.44-6250j;
	voltage_C -3608.44+6250j;
	constant_power_A 0+0j;
	constant_power_B 15784.7299+6162.1691j;
	constant_power_C 0+0j;
	nominal_voltage 7216.88;
	load_class C;
}

object load:657 {
	name R1-12-47-1_load_7;
	parent R1-12-47-1_meter_7;
	phases ABCN;
	voltage_A 7216.88+0.0j;
	voltage_B -3608.44-6250j;
	voltage_C -3608.44+6250j;
	constant_power_A 7958.5631+8857.3899j;
	constant_power_B 32165.11+12556.8728j;
	constant_power_C 43757.1314+16911.7716j;
	nominal_voltage 7216.88;
	load_class C;
}

object load:658 {
	name R1-12-47-1_load_8;
	parent R1-12-47-1_meter_8;
	phases AN;
	voltage_A 7216.88+0.0j;
	constant_power_A 6411.0647+7135.1197j;
	nominal_voltage 7216.88;
	load_class C;
}

object load:659 {
	name R1-12-47-1_load_9;
	parent R1-12-47-1_meter_9;
	phases CN;
	voltage_C -3608.44+6250j;
	constant_power_C 50746.1176+19612.9574j;
	nominal_voltage 7216.88;
	load_class C;
}

object load:660 {
	name R1-12-47-1_load_10;
	parent R1-12-47-1_meter_10;
	phases CN;
	voltage_C -3608.44+6250j;
	constant_power_C 10534.1242+4071.3524j;
	nominal_voltage 7216.88;
	load_class C;
}

object load:661 {
	name R1-12-47-1_load_11;
	parent R1-12-47-1_meter_11;
	phases ABCN;
	voltage_A 7216.88+0.0j;
	voltage_B -3608.44-6250j;
	voltage_C -3608.44+6250j;
	constant_power_A 0+0j;
	constant_power_B 9083.6653+3546.1539j;
	constant_power_C 0+0j;
	nominal_voltage 7216.88;
	load_class C;
}

object load:662 {
	name R1-12-47-1_load_12;
	parent R1-12-47-1_meter_12;
	phases CN;
	voltage_C -3608.44+6250j;
	constant_power_C 27550.7864+10648.1525j;
	nominal_voltage 7216.88;
	load_class C;
}

object load:663 {
	name R1-12-47-1_load_13;
	parent R1-12-47-1_meter_13;
	phases AN;
	voltage_A 7216.88+0.0j;
	constant_power_A 3076.5742+3424.0373j;
	nominal_voltage 7216.88;
	load_class A;
}

object load:664 {
	name R1-12-47-1_load_14;
	parent R1-12-47-1_meter_14;
	phases AN;
	voltage_A 7216.88+0.0j;
	constant_power_A 1584.3436+1763.2767j;
	nominal_voltage 7216.88;
	load_class A;
}

object load:665 {
	name R1-12-47-1_load_15;
	parent R1-12-47-1_meter_15;
	phases AN;
	voltage_A 7216.88+0.0j;
	constant_power_A 1547.4984+1722.2703j;
	nominal_voltage 7216.88;
	load_class A;
}

object load:666 {
	name R1-12-47-1_load_16;
	parent R1-12-47-1_meter_16;
	phases AN;
	voltage_A 7216.88+0.0j;
	constant_power_A 6374.2195+7094.1132j;
	nominal_voltage 7216.88;
	load_class A;
}

object load:667 {
	name R1-12-47-1_load_17;
	parent R1-12-47-1_meter_17;
	phases AN;
	voltage_A 7216.88+0.0j;
	constant_power_A 4163.5076+4633.7271j;
	nominal_voltage 7216.88;
	load_class A;
}

object load:668 {
	name R1-12-47-1_load_18;
	parent R1-12-47-1_meter_18;
	phases AN;
	voltage_A 7216.88+0.0j;
	constant_power_A 6411.0647+7135.1197j;
	nominal_voltage 7216.88;
	load_class A;
}

object load:669 {
	name R1-12-47-1_load_19;
	parent R1-12-47-1_meter_19;
	phases ABCN;
	voltage_A 7216.88+0.0j;
	voltage_B -3608.44-6250j;